     141
CELL: 13.74345683 0.0 0.0 -6.78575418245 12.0291091899 0.0 0.00597842621608 -0.104938318139 14.8919576931 
Si  3.870173367 -25.637039955  8.425735752
Si  10.853952437 -18.983173056  8.624592294
Si  8.503912432 -28.371112203  8.496376495
Si  1.444743835 -16.480243575  20.050667040
Si  10.767311388 -19.087536093  20.276201365
Si  3.667369253 -25.627451221  20.028083807
Si  10.781698571 -21.634877043  13.351455607
Al  10.767319050 -27.135970848  13.399766364
Si  15.414582137 -24.301749903  13.382991585
Si  15.328382672 -24.387033927  10.495562093
Si  10.659407988 -27.211011252  10.304255891
Si  10.841421194 -21.844309773  10.282325695
Si  3.803940648 -17.781608506  18.609157535
Si  3.778847032 -23.049114944  18.280749578
Si  8.553421180 -20.411322923  18.321489827
Si  8.678747840 -20.192419467  15.167976023
Si  3.816343428 -22.993844879  15.391647799
Si  3.941012362 -17.585024745  15.361669339
Si -0.041259724 -19.261352460  20.067355722
Si  6.767703199 -25.797491591  19.940746801
Si  9.327471167 -16.461826868  20.167373120
Si  16.089053395 -28.295970742  8.486088512
Si  7.085150582 -25.681723635  8.242478987
Si  0.165560318 -19.099660814  8.404929226
Si  13.804728903 -27.188544665  10.389052561
Si  13.956542116 -21.612986799  10.426338390
Si  9.419868245 -24.483358958  10.037541201
Si  9.128419979 -24.152848509  13.247837441
Si  13.833169919 -21.504044407  13.251336906
Si  13.895529816 -27.053265095  13.300155767
Si  6.946380557 -22.829320085  15.075080011
Si  7.053231183 -17.469817788  15.429192570
Si  2.222055567 -20.203083981  15.344725520
Si  2.079413729 -20.490891144  18.416982136
Si  6.846724944 -17.871432077  18.490909267
Al  6.934627862 -23.089431954  18.264570963
 O  17.097147242 -27.083412511  9.013222994
 O  12.442527169 -18.539146343  8.975894140
 O  7.489291466 -27.164296579  8.934468342
 O  0.420864490 -17.729548192  19.760624860
 O  10.680671440 -17.419003359  20.197454767
 O  5.177063113 -26.232094829  19.723301479
 O  10.441346705 -23.239589987  13.594070360
 O  12.437379785 -26.381689791  13.168984155
 O  14.144370293 -23.116479466  13.453767771
 O  14.173753170 -25.478249057  10.186117777
 O  10.459130651 -25.667607316  9.841515493
 O  12.425952226 -22.199241737  10.494151543
 O  3.254216466 -19.392187062  18.846591939
 O  5.313387709 -22.478176068  18.513375864
 O  7.118194151 -19.620482204  18.365190638
 O  7.407630565 -21.248868357  14.693950664
 O  3.281166603 -21.503533062  15.642319743
 O  5.490082328 -17.903844497  14.975466396
 O  16.546255885 -24.668092496  9.303825371
 O  10.536056478 -20.360497066  9.424401385
 O  9.970474555 -28.189367374  9.212953482
 O  2.893142037 -16.698530835  19.382102007
 O  9.463974482 -19.967297483  19.585969270
 O  3.248827119 -24.292520074  19.233037075
 O  9.948904783 -20.477317736  14.212359954
 O  2.823629664 -23.884967206  14.486045397
 O  0.794611489 -20.541076238  19.367027131
 O  7.208640304 -24.454333936  19.172921256
 O  8.044997581 -17.187038483  19.396658825
 O  14.620740948 -28.132431972  9.318909408
 O  8.043765078 -24.640880382  9.184440595
 O  14.300318341 -20.533982266  9.338854908
 O  7.716179529 -23.857058202  14.016737389
 O  0.920278223 -20.478230782  14.263419676
 O  14.174215646 -28.053737877  14.584426203
 O  5.515838650 -25.309492915  8.686409578
 O  9.799419390 -17.713846642  8.997120110
 O  1.210653925 -17.896523765  8.801428043
 O  7.732148693 -27.072385135  19.382003919
 O  12.135771387 -19.552216076  19.531060971
 O  16.297246414 -26.916096897  19.510357791
 O  12.281400154 -21.233390555  13.502304956
 O  9.640184999 -25.685244502  13.890852241
 O  14.905032361 -25.760974232  13.735505499
 O  14.965966218 -22.815904799  9.989931033
 O  12.254810192 -27.470903757  9.986189438
 O  9.954569548 -23.039474514  9.512896228
 O  5.385165193 -17.559079073  19.238811481
 O  2.520004052 -22.074017557  18.585400771
 O  8.250516880 -21.950564862  18.650332774
 O  8.250123902 -18.508130675  14.949486482
 O  5.306564692 -22.956348504  14.721765757
 O  3.091275970 -18.912514965  14.837588680
 O  3.663621921 -25.801181990  21.682703530
 O  10.667344183 -19.392249884  21.872347815
 O  1.888915308 -16.316237195  21.627354259
 O  10.151042021 -21.452418792  11.720270853
 O  16.176131994 -24.300056358  11.949278445
 O  3.666899841 -17.413148707  16.979089336
 O  3.582802547 -23.787428792  16.862958522
 O  9.167779321 -20.207926032  16.789766452
 O  0.199950856 -19.537245245  21.708868750
 O  7.330115550 -25.513052928  21.611399268
 O  8.854210188 -16.363177626  21.759317021
 O  14.326755905 -27.795867833  11.882625606
 O  14.495824094 -20.967387410  11.760360563
 O  8.899135116 -24.309044240  11.656576538
 O  7.193688681 -23.407659552  16.499005326
 O  6.995465449 -17.183864414  17.033864681
 O  1.680913541 -19.943505444  16.901554758
 O  3.615231271 -16.124671719  14.695043130
 O  10.101351673 -27.556673619  11.799923758
 H  12.909015610 -23.594223633  21.227040674
 H  9.046650634 -25.802586028  14.722856634
 H  8.448327340 -23.617158035  21.360360946
 H  11.163655782 -22.020901916  21.967242056
 C  10.412011985 -22.786761836  21.588697373
 H  12.876496993 -25.000979912  23.103711299
 H  13.705469969 -26.133720262  21.729150129
 C  10.924548354 -24.102905154  21.217815019
 C  12.822240711 -25.572792999  22.120185857
 C  12.331458953 -24.531740503  21.068100272
 H  12.115652964 -26.412586931  22.128095563
 C  12.488519672 -24.825816329  19.535243685
 H  13.865191403 -24.046749427  18.134816760
 C  12.925507943 -23.808478589  18.625216915
 C  11.914531822 -26.037404344  19.181142230
 C  12.205029987 -22.748569368  18.234785523
 C  11.596694232 -26.377735621  17.747141690
 C  12.485934965 -22.123444084  16.940658094
 C  6.896878725 -21.511823757  21.257011823
 H  6.450470077 -20.518158950  21.258736161
 H  6.230573157 -22.301645483  20.995680184
 H  8.740938593 -20.679065143  21.870123538
 C  8.229767078 -21.544572539  21.662171239
 C  8.973329062 -22.642788664  21.485866358
 H  10.144217497 -24.821971645  20.881267595
 H  11.490860882 -26.672800705  19.939359955
 H  12.061700288 -27.393754770  17.606352809
 H  11.873089401 -25.395297601  17.184378814
 H  10.555607830 -26.739857588  17.663058089
 H  13.383402667 -22.539518651  16.291044753
 H  12.424196727 -21.004103878  16.966476022
 H  11.548271019 -22.361051471  16.389447237
 H  11.204182050 -22.531559308  18.728718207
