  141
CELL: 13.83  0.0  0.0 -6.89722974 12.03349998  0.0  0.02044129 -0.03835065 14.6399355
Si      2.141080   -17.109337     8.996658
Si      8.888384   -10.337788     8.841917
Si      6.722384   -19.869040     8.893001
Si     -0.070862    -7.687050    20.414867
Si      9.154073   -10.248219    20.312797
Si      2.205163   -16.908305    20.440391
Si      8.967573   -12.710099    13.707914
Al      8.903699   -18.331800    13.706765
Si     13.637941   -15.537112    13.767104
Si     13.572652   -15.773480    10.763685
Si      9.024538   -18.423920    10.443658
Si      8.900794   -12.874889    10.533825
Si      2.215176    -8.797803    18.469753
Si      2.316381   -14.425649    18.576539
Si      6.688759   -11.358200    18.574172
Si      6.687468   -11.440065    15.164779
Si      2.255063   -14.199008    15.504201
Si      1.993424    -8.875731    15.436298
Si     -1.666739   -10.381080    20.358609
Si      5.407358   -16.824068    20.611159
Si      7.591423    -7.395858    20.271638
Si     14.273452   -19.575453     8.812165
Si      5.256714   -16.859508     9.058914
Si     -1.866270   -10.433539     8.960952
Si     12.050603   -18.429546    10.821104
Si     12.186402   -13.102999    10.541329
Si      7.790203   -15.656163    10.440763
Si      7.647080   -15.401248    13.678422
Si     12.073662   -13.164974    13.567430
Si     12.221938   -18.303902    13.733166
Si      5.299738   -14.154824    15.029023
Si      5.237421    -8.806871    15.405440
Si      0.577983   -11.688983    15.522896
Si      0.821359   -11.544758    18.439226
Si      5.323505    -8.874826    18.587729
Al      5.526239   -14.572017    18.255056
 O     15.572937   -18.671945     9.135274
 O     10.370517    -9.946024     9.543872
 O      5.714921   -18.498756     8.970043
 O     -1.370248    -8.818814    20.176023
 O      8.794814    -8.604899    20.351722
 O      3.871253   -17.230534    20.125368
 O      8.367881   -14.139939    14.408194
 O     10.687145   -17.854843    13.887319
 O     12.210655   -14.746326    13.849411
 O     12.288934   -16.737013    10.876635
 O      8.853242   -16.883751     9.812373
 O     10.460697   -13.416984    10.259387
 O      2.198470   -10.487443    18.430633
 O      3.874109   -14.151850    18.932875
 O      5.374092   -10.402725    19.061803
 O      5.513803   -12.466984    14.838573
 O      1.935937   -12.619548    15.449603
 O      3.619884    -9.231229    15.359845
 O     14.766652   -16.407661     9.857779
 O      8.234050   -11.628939     9.720612
 O      8.150014   -19.583517     9.691173
 O      1.024308    -7.898829    19.234457
 O      8.080727   -11.124983    19.414405
 O      1.657599   -15.504980    19.645027
 O      8.155554   -11.527714    14.474042
 O      0.858028   -14.944914    14.865642
 O     -0.368253   -11.240909    19.569785
 O      6.087006   -15.615788    19.598190
 O      6.296296    -7.976955    19.518583
 O     13.001241   -18.963775     9.527276
 O      6.286772   -16.200324    10.218119
 O     12.547549   -11.816291     9.540245
 O      6.023786   -15.228565    13.931016
 O     -0.544592   -12.401077    14.462298
 O     12.619764   -19.463728    14.850779
 O      3.708860   -16.736089     9.620826
 O      7.796989    -9.104727     9.109501
 O     -0.837098    -9.193751     9.515435
 O      6.365029   -18.203839    20.416399
 O     10.643918   -10.842249    19.687554
 O     15.140509   -18.156727    19.611674
 O     10.556736   -12.614668    13.961953
 O      8.107560   -16.814686    14.574158
 O     13.240858   -17.047969    14.070539
 O     13.213395   -14.287002    10.040383
 O     10.544279   -18.676984    10.293945
 O      7.976536   -14.070696     9.747203
 O      3.742460    -8.265593    18.781008
 O      1.255494   -13.160864    18.512521
 O      6.384867   -13.076648    19.063931
 O      6.049945    -9.988350    14.693196
 O      3.740597   -14.639693    14.778717
 O      1.006318   -10.107032    14.936256
 O      2.000962   -16.716915    22.034463
 O      8.837674   -10.665023    21.884961
 O      0.414048    -8.045611    21.986886
 O      8.639166   -12.700663    12.098466
 O     14.335787   -15.325293    12.200400
 O      1.888006    -8.249754    16.926179
 O      2.345413   -15.028059    16.990538
 O      7.043313   -11.547390    16.938895
 O     -1.783866   -10.334445    22.007898
 O      5.518106   -16.353873    22.104613
 O      7.206592    -7.518104    21.863558
 O     12.528212   -19.129031    12.265215
 O     12.412853   -12.679067    12.045255
 O      8.127526   -15.633679    12.098419
 O      5.839758   -14.680124    16.492511
 O      5.828813    -8.659778    16.967987
 O      0.043086   -11.280820    17.036326
 O      1.391138    -7.458835    14.789880
 O      8.457257   -18.616964    11.967829
 H      6.771078   -13.386560    19.992622
 H      7.451808   -17.317239    15.128298
 H      4.119437   -13.441991    21.843623
 H      6.656729   -12.528658    23.239637
 C      6.010274   -13.146848    22.647074
 H      9.630859   -12.801835    21.613881
 H      9.697927   -13.871870    23.008220
 C      6.619610   -14.028189    21.789744
 C      8.971995   -13.338066    22.360866
 C      8.044642   -14.255594    21.723033
 H      8.425217   -12.645815    23.097973
 C      8.574065   -15.653366    21.411500
 H     10.413966   -16.658374    20.645712
 C      9.739205   -15.766362    20.518804
 C      7.923260   -16.650381    22.124769
 C      9.974412   -14.842492    19.517939
 C      8.482261   -17.951208    22.464923
 C     11.063443   -15.076173    18.410295
 C      2.912053   -11.015359    22.152765
 H      2.602952   -10.001812    22.213284
 H      2.196332   -11.711228    21.700519
 H      4.584540   -10.810382    23.364149
 C      4.048538   -11.539303    22.704591
 C      4.521277   -12.961668    22.732698
 H      5.911471   -14.614746    21.109676
 H      7.089102   -16.266897    22.551725
 H      8.129998   -18.377102    23.444657
 H      9.561617   -18.075378    22.399587
 H      8.002179   -18.713841    21.835119
 H     11.774786   -14.274332    18.188218
 H     10.527828   -15.402403    17.441748
 H     11.729540   -15.880319    18.718077
 H      9.307823   -13.881104    19.368407
