182
CELL:    13.738184    -0.009137    -0.013019    -6.903244    11.896314     0.008240    -0.001225    -0.026885    14.990754
O 11.738192 1.148931 1.850771
O -4.877701 10.678817 13.213140
O 6.873691 9.501902 1.811238
O -0.014894 2.294881 13.159974
O 1.954260 1.157062 1.824823
O 4.833764 10.658347 13.079860
O 4.945379 5.018185 6.711985
O 8.870463 2.890632 3.260472
O 6.747488 1.715904 6.970695
O 6.926217 6.278873 3.090717
O 8.990059 5.223221 6.663402
O 4.806036 2.764275 3.260740
O -2.088303 9.063538 11.783017
O 1.817765 6.780127 8.421088
O -0.014951 5.557618 11.832526
O -0.028359 10.369203 8.162479
O 2.002169 9.033284 11.749999
O -2.034192 6.720461 8.149177
O 11.292538 3.734929 2.442672
O -4.489389 8.127887 12.453327
O 4.863070 7.875624 2.474363
O 2.005164 3.935932 12.511433
O 4.345699 0.216802 2.526951
O 2.372626 11.550214 12.586077
O -2.461933 11.607017 12.530643
O 9.286020 0.161065 2.410092
O 4.407843 8.071751 12.574297
O 2.444020 3.709883 2.453165
O -2.027495 3.923687 12.494584
O 8.937307 7.916507 2.446981
O 4.464064 7.550469 7.456307
O 11.254562 4.136521 7.543148
O 2.451086 4.331116 7.477841
O -4.424564 7.751742 7.469945
O 8.836955 0.235670 7.721771
O 4.764702 -0.008675 7.529849
O -0.017381 2.908300 1.931724
O 6.839548 8.961484 12.999151
O 4.425615 10.441738 2.020054
O 2.453893 1.382669 12.985876
O -4.430376 10.447721 1.890006
O 11.255129 1.364139 12.963568
O 6.906601 6.782841 6.970541
O 6.752495 0.987200 2.880048
O 4.207201 2.475836 6.867106
O 9.461499 5.468142 3.130460
O 9.220806 2.641174 6.869237
O 4.445794 5.347226 2.983186
O -0.050656 10.680291 12.070403
O -0.047340 4.945148 8.020447
O -2.495455 6.465756 12.000360
O 2.490548 9.563725 8.058542
O 2.476378 6.422362 11.833967
O -2.455151 9.341029 8.124957
O 11.903555 3.018320 14.961688
O 8.635685 8.676305 14.949884
O 5.050348 8.805731 0.011342
O 1.806690 3.048843 14.972275
O 3.592895 0.069280 -0.001627
O 3.372387 11.824703 -0.000254
O 5.156612 7.009784 4.954834
O 8.419410 0.743584 5.145257
O 5.153315 0.784167 5.032784
O 8.596553 7.233999 4.957993
O 10.627969 3.947072 4.984115
O 3.187070 4.033684 4.964759
O -1.786317 11.075648 10.041207
O 1.717331 4.634005 9.989335
O -1.826488 4.816245 10.012437
O 1.676819 11.089130 10.086899
O 3.782793 7.969681 10.059489
O -3.628490 7.822149 9.983810
Si 12.147093 2.697843 1.548835
Si 8.409215 9.113906 13.400973
Si 5.299694 9.158113 1.587290
Si 1.550758 2.665354 13.410724
Si 3.063394 0.006224 1.537465
Si 3.737206 11.826705 13.417990
Si -3.781462 11.867908 13.430637
Si 3.737555 11.856054 1.592589
Si 5.291221 9.141086 13.443986
Si 1.538346 2.715777 1.545722
Si 12.150961 2.650311 13.398169
Si 8.425930 9.128680 1.517873
Si 5.236828 1.250353 6.618353
Si 8.471903 6.704321 3.421725
Si 10.025838 3.982794 6.497459
Si 3.708792 3.979399 3.428807
Si 10.035369 3.979643 3.453783
Si 3.702250 3.982302 6.520193
Si 5.173330 1.212519 3.486580
Si 8.456935 6.741535 6.506079
Si 5.361009 6.630023 3.392741
Si 8.314780 1.320726 6.638528
Si -1.600963 10.603781 11.586270
Si 1.497378 5.208831 8.460752
Si -1.587461 5.186758 11.573969
Si 1.530910 10.762064 8.486078
Si 3.113936 7.876915 11.631355
Si -3.125510 7.899219 8.430102
Si -3.168743 7.869843 11.543171
Si -1.595370 5.169692 8.434943
Si 1.502417 10.599215 11.607726
Si -1.590715 10.667388 8.468606
Si 1.526444 5.127512 11.520524
Si 5.350445 6.602024 6.528453
Al 3.039739 7.974242 8.294253
Al 8.517748 1.229108 3.511961
H 4.753400 7.895123 10.027565
H 6.769259 0.473065 2.051966
C -2.093509 8.760164 4.024982
H -1.911910 7.691032 3.894057
H -1.575832 9.302659 3.222467
H -3.173242 8.943276 3.941502
O -1.594324 9.108179 5.307914
H -1.748163 10.044886 5.434325
C -1.443022 6.458476 1.026186
H -0.762063 5.980059 1.733698
H -2.376475 5.880515 0.995398
H -1.662446 7.473068 1.385045
O -0.785876 6.471792 -0.232463
H -1.374199 6.889609 -0.862043
C 5.153429 10.400805 5.478169
H 5.670150 10.535106 4.525213
H 4.339981 9.676881 5.334795
H 5.867497 9.996226 6.208064
O 4.665486 11.676923 5.865012
H 4.209751 11.571709 6.700657
C 7.723940 1.937860 14.445654
H 7.652147 0.892326 14.753659
H 7.834619 1.972846 13.353480
H 6.793484 2.449028 14.727223
O 8.852310 2.486135 15.110776
H 8.925636 3.404130 14.848144
C 4.477086 3.043275 10.433030
H 4.159503 2.701110 11.420566
H 3.656677 2.870373 9.723557
H 4.682162 4.120953 10.486651
O 5.637595 2.298958 10.093286
H 5.925817 2.590668 9.227896
C 7.396655 5.530407 11.373340
H 6.651573 4.736430 11.286071
H 7.412362 5.881038 12.414075
H 8.381253 5.113879 11.121557
O 7.009870 6.558297 10.473309
H 7.656727 7.261190 10.541008
C 1.299392 6.868446 4.309965
H 0.995600 5.940015 4.798728
H 1.776675 6.618676 3.352816
H 0.401374 7.470121 4.115358
O 2.195910 7.524630 5.194212
H 2.469599 8.341403 4.775834
C 1.198529 1.454841 5.848536
H 1.053957 2.535172 5.776795
H 1.568319 1.218594 6.855394
H 0.228123 0.962485 5.699467
O 2.134592 1.097322 4.842465
H 2.269644 0.150748 4.895608
C 0.771039 9.229191 0.576751
H 0.587624 10.291464 0.753098
H 0.577596 8.682369 1.509427
H 0.072709 8.878124 -0.194877
O 2.123730 9.108529 0.162168
H 2.296626 8.179956 0.004292
C 8.083800 10.743889 9.277124
H 7.566721 9.989796 9.874733
H 8.561470 10.244815 8.423265
H 7.341255 11.461151 8.902311
O 9.035613 11.362912 10.129811
H 9.496038 12.027126 9.616103
C 4.802623 5.488011 14.423911
H 5.702816 5.935836 13.996984
H 4.379214 6.187565 15.157170
H 4.074286 5.331983 13.616753
O 5.197657 4.264006 15.025553
H 4.415455 3.861476 15.403965
C 11.620947 0.782368 9.571263
H 11.617474 -0.296696 9.740883
H 11.446542 0.967998 8.502880
H 10.801359 1.229012 10.150149
O 12.889743 1.260943 9.992379
H 12.904746 2.207553 9.848263
