182
CELL:    13.738184    -0.009137    -0.013019    -6.903244    11.896314     0.008240    -0.001225    -0.026885    14.990754
O 11.738192 1.148931 1.850771
O -4.877701 10.678817 13.213140
O 6.873691 9.501902 1.811238
O -0.014894 2.294881 13.159974
O 1.954260 1.157062 1.824823
O 4.833764 10.658347 13.079860
O 4.945379 5.018185 6.711985
O 8.870463 2.890632 3.260472
O 6.747488 1.715904 6.970695
O 6.926217 6.278873 3.090717
O 8.990059 5.223221 6.663402
O 4.806036 2.764275 3.260740
O -2.088303 9.063538 11.783017
O 1.817765 6.780127 8.421088
O -0.014951 5.557618 11.832526
O -0.028359 10.369203 8.162479
O 2.002169 9.033284 11.749999
O -2.034192 6.720461 8.149177
O 11.292538 3.734929 2.442672
O -4.489389 8.127887 12.453327
O 4.863070 7.875624 2.474363
O 2.005164 3.935932 12.511433
O 4.345699 0.216802 2.526951
O 2.372626 11.550214 12.586077
O -2.461933 11.607017 12.530643
O 9.286020 0.161065 2.410092
O 4.407843 8.071751 12.574297
O 2.444020 3.709883 2.453165
O -2.027495 3.923687 12.494584
O 8.937307 7.916507 2.446981
O 4.464064 7.550469 7.456307
O 11.254562 4.136521 7.543148
O 2.451086 4.331116 7.477841
O -4.424564 7.751742 7.469945
O 8.836955 0.235670 7.721771
O 4.764702 -0.008675 7.529849
O -0.017381 2.908300 1.931724
O 6.839548 8.961484 12.999151
O 4.425615 10.441738 2.020054
O 2.453893 1.382669 12.985876
O -4.430376 10.447721 1.890006
O 11.255129 1.364139 12.963568
O 6.906601 6.782841 6.970541
O 6.752495 0.987200 2.880048
O 4.207201 2.475836 6.867106
O 9.461499 5.468142 3.130460
O 9.220806 2.641174 6.869237
O 4.445794 5.347226 2.983186
O -0.050656 10.680291 12.070403
O -0.047340 4.945148 8.020447
O -2.495455 6.465756 12.000360
O 2.490548 9.563725 8.058542
O 2.476378 6.422362 11.833967
O -2.455151 9.341029 8.124957
O 11.903555 3.018320 14.961688
O 8.635685 8.676305 14.949884
O 5.050348 8.805731 0.011342
O 1.806690 3.048843 14.972275
O 3.592895 0.069280 -0.001627
O 3.372387 11.824703 -0.000254
O 5.156612 7.009784 4.954834
O 8.419410 0.743584 5.145257
O 5.153315 0.784167 5.032784
O 8.596553 7.233999 4.957993
O 10.627969 3.947072 4.984115
O 3.187070 4.033684 4.964759
O -1.786317 11.075648 10.041207
O 1.717331 4.634005 9.989335
O -1.826488 4.816245 10.012437
O 1.676819 11.089130 10.086899
O 3.782793 7.969681 10.059489
O -3.628490 7.822149 9.983810
Si 12.147093 2.697843 1.548835
Si 8.409215 9.113906 13.400973
Si 5.299694 9.158113 1.587290
Si 1.550758 2.665354 13.410724
Si 3.063394 0.006224 1.537465
Si 3.737206 11.826705 13.417990
Si -3.781462 11.867908 13.430637
Si 3.737555 11.856054 1.592589
Si 5.291221 9.141086 13.443986
Si 1.538346 2.715777 1.545722
Si 12.150961 2.650311 13.398169
Si 8.425930 9.128680 1.517873
Si 5.236828 1.250353 6.618353
Si 8.471903 6.704321 3.421725
Si 10.025838 3.982794 6.497459
Si 3.708792 3.979399 3.428807
Si 10.035369 3.979643 3.453783
Si 3.702250 3.982302 6.520193
Si 5.173330 1.212519 3.486580
Si 8.456935 6.741535 6.506079
Si 5.361009 6.630023 3.392741
Si 8.314780 1.320726 6.638528
Si -1.600963 10.603781 11.586270
Si 1.497378 5.208831 8.460752
Si -1.587461 5.186758 11.573969
Si 1.530910 10.762064 8.486078
Si 3.113936 7.876915 11.631355
Si -3.125510 7.899219 8.430102
Si -3.168743 7.869843 11.543171
Si -1.595370 5.169692 8.434943
Si 1.502417 10.599215 11.607726
Si -1.590715 10.667388 8.468606
Si 1.526444 5.127512 11.520524
Si 5.350445 6.602024 6.528453
Al 3.039739 7.974242 8.294253
Al 8.517748 1.229108 3.511961
H 4.753400 7.895123 10.027565
H 6.769259 0.473065 2.051966
C 1.857956 6.592866 1.645063
C 2.541897 6.462296 0.506028
H 0.909852 6.072762 1.773567
H 2.151705 5.835682 -0.294613
H 3.490000 6.982400 0.377524
H 2.241340 7.208547 2.431736
C -1.923779 -0.301911 9.337905
C -1.888333 1.031425 9.281482
H -1.717120 -0.890363 8.445191
H -1.652759 1.530616 8.342741
H -2.094992 1.619876 10.174196
H -2.155243 -0.792393 10.260267
C 9.505530 5.435260 14.696464
C 8.771720 4.746975 13.818961
H 9.802163 4.975010 15.637793
H 8.469763 3.725269 14.044483
H 8.475087 5.207226 12.877632
H 9.802218 6.439140 14.474877
C 7.262771 13.771812 6.343243
C 6.077210 13.737655 5.730459
H 7.315188 13.931782 7.419153
H 5.162529 13.869763 6.306504
H 6.024794 13.577685 4.654549
H 8.161494 13.642009 5.777249
C -4.870771 10.263999 5.157483
C -5.890093 11.092477 4.919087
H -4.174493 10.013371 4.358544
H -6.025306 11.517664 3.925681
H -6.586371 11.343105 5.718026
H -4.737917 9.846230 6.133556
C 0.838379 9.140876 3.685633
C 0.205671 9.820358 4.644908
H 1.351254 8.210540 3.925125
H 0.202428 9.444297 5.666911
H -0.307204 10.750693 4.405416
H 0.841566 9.510375 2.681462
C 4.844318 3.878075 10.255893
C 4.779262 2.750524 10.967667
H 4.566825 3.874022 9.202848
H 4.448701 1.826694 10.495238
H 5.056755 2.754576 12.020711
H 5.169112 4.785786 10.720079
C 8.221741 13.096227 10.193071
C 8.244289 11.763064 10.259345
H 7.341929 13.643278 10.528613
H 7.382869 11.222613 10.648948
H 9.124101 11.216013 9.923803
H 9.068131 13.627249 9.810266
C 5.385309 3.965212 14.192958
C 5.647065 5.269251 14.307813
H 6.115097 3.231440 14.531944
H 6.590374 5.599223 14.740488
H 4.917278 6.003023 13.968827
H 4.458459 3.640997 13.767832
C 0.327946 9.013276 -0.315697
C -0.244866 7.855635 -0.653304
H -0.289909 9.881736 -0.092190
H -1.329981 7.779772 -0.705194
H 0.372988 6.987175 -0.876811
H 1.394128 9.087816 -0.264712
C -1.312346 6.509203 4.016212
C -0.292369 6.236008 4.833057
H -2.180134 7.050080 4.390801
H -0.328131 6.554032 5.873972
H 0.575420 5.695131 4.458468
H -1.277208 6.196728 2.993458
C 8.086194 4.502618 9.714912
C 7.919598 3.193226 9.515002
H 9.078590 4.899697 9.923235
H 8.776098 2.522195 9.560252
H 6.927202 2.796146 9.306678
H 7.244638 5.161941 9.670451
