     304
CELL:    13.327840     0.090971    -0.000123     0.117744    17.057679     0.000041    -0.000162     0.000008    25.159279
 O  6.685640406  4.323737452  8.612887035
 O  3.412060365  12.830777963  2.323186578
 O  6.744025814  12.852639678  3.966727069
 O  3.353706420  4.302009884  10.256483029
 O  1.159257795  14.063216796  1.818022815
 O  4.432780795  5.555651865  8.106123806
 O  1.202263762  2.778222758  10.523477952
 O  4.592656868  11.328435756  4.231716018
 O  5.513127242  5.768759511  10.587685860
 O  2.239626935  14.273600586  4.299671299
 O  5.686670855  11.562915555  1.829392126
 O  2.296221610  3.009865130  8.120808267
 O  5.628200401  3.034053434  10.750019998
 O  2.354757371  11.538848711  4.459151926
 O  5.571539124  14.297572503  1.991704470
 O  2.181167012  5.744669948  8.280038991
 O  1.260664616  11.306933057  2.056622854
 O  4.534179301  2.799602073  8.347757168
 O  1.100835871  5.534482939  10.761769110
 O  4.491247253  14.084511986  4.473345326
 H  6.671071146  4.714673622  7.729055685
 H  3.397336917  13.222447644  1.439684622
 H  6.729303051  13.243726954  4.850489678
 H  3.339157275  4.694173880  11.139771782
 H  2.201417985  15.751683749  0.384896018
 H  5.473920217  7.241421886  6.668146302
 H  2.144978220  0.790732417  11.580083270
 H  5.534874017  9.338169219  5.283855643
 H  4.586019719  7.780253866  11.605966265
 H  1.312796948  16.284634493  5.318803715
 H  4.648731719  9.877505895  0.413371550
 H  1.258070643  1.324220044  6.705767307
 H  4.589367165  1.346971994  12.162861517
 H  1.316879097  9.853156557  5.874513292
 H  4.644054529  16.307293305  0.970231962
 H  1.254190729  7.755825581  7.261427586
 H  2.203017433  9.317727581  1.003132295
 H  5.476248855  0.809365932  7.295196193
 H  2.142040611  7.221067268  12.198355526
 H  5.532708300  15.770359186  5.910864685
Al  1.691771176  4.264448599  9.424910508
Al  5.082156381  12.816020485  3.134960855
Al  1.750197344  12.793291959  3.154950462
Al  5.023725911  4.287178165  9.444504281
 C  1.296370114  16.329096167  0.202010806
 C  4.569098298  7.819758051  6.487039642
 C  1.214546461  0.432651526  12.019172150
 C  4.604868907  8.981018692  5.724616821
 C  5.516230687  8.132238151  12.050040114
 C  2.243078846  16.636478824  5.762837213
 C  5.550664249  9.293854612  0.232359565
 C  2.159900175  0.740419707  6.524729096
 C  5.491473242  0.764051551  12.345375610
 C  2.218749352  9.269315495  6.055258478
 C  5.574672692  16.660083944  0.527680506
 C  2.184351982  8.107660168  6.817146856
 C  1.272981414  8.960456427  0.562521580
 C  4.546122435  0.452203484  6.854684549
 C  1.237172480  7.799248726  12.379679334
 C  4.627925705  16.348653609  6.092263938
 C  6.749513880  15.927183700  0.749039008
 C  3.358890044  7.373634599  7.036426409
 C  0.038630744  1.162297776  11.796839384
 C  3.429297981  9.711938067  5.504597461
 C  6.690812486  7.398360249  11.830568991
 C  3.417568087  15.902506548  5.543195651
 C  0.097326943  9.691093025  0.782953870
 C  3.370600213  1.183064516  7.075071455
 C  6.712342453  14.686459200  1.580558865
 C  3.321920444  6.133289724  7.868507518
 C  0.071383247  2.399788809  10.961913722
 C  3.461880409  10.949833542  4.670264684
 C  6.653879212  6.157669005  10.998994903
 C  3.380453342  14.662183145  4.711090246
 C  0.129849634  10.928576808  1.617894178
 C  3.403308102  2.420932204  7.909437381
 O  6.685559493  4.323741522  21.192526449
 O  3.411979452  12.830782034  14.902825992
 O  6.743944901  12.852643749  16.546366483
 O  3.353625507  4.302013954  22.836122443
 O  1.159176882  14.063220867  14.397662228
 O  4.432699882  5.555655935  20.685763220
 O  1.202182850  2.778226829  23.103117366
 O  4.592575955  11.328439826  16.811355432
 O  5.513046330  5.768763581  23.167325274
 O  2.239546023  14.273604656  16.879310713
 O  5.686589943  11.562919625  14.409031540
 O  2.296140698  3.009869201  20.700447681
 O  5.628119488  3.034057505  23.329659411
 O  2.354676458  11.538852782  17.038791340
 O  5.571458211  14.297576573  14.571343884
 O  2.181086099  5.744674018  20.859678405
 O  1.260583703  11.306937127  14.636262268
 O  4.534098388  2.799606143  20.927396582
 O  1.100754958  5.534487009  23.341408524
 O  4.491166340  14.084516056  17.052984740
 H  6.670990233  4.714677693  20.308695099
 H  3.397256005  13.222451714  14.019324036
 H  6.729222138  13.243731025  17.430129092
 H  3.339076362  4.694177951  23.719411195
 H  2.201337073  15.751687819  12.964535432
 H  5.473839304  7.241425957  19.247785716
 H  2.144897307  0.790736487  24.159722684
 H  5.534793104  9.338173289  17.863495056
 H  4.585938806  7.780257936  24.185605678
 H  1.312716036  16.284638563  17.898443128
 H  4.648650806  9.877509965  12.993010963
 H  1.257989731  1.324224114  19.285406720
 H  4.589286253  1.346976064  24.742500930
 H  1.316798185  9.853160627  18.454152706
 H  4.643973617  16.307297376  13.549871376
 H  1.254109817  7.755829652  19.841066999
 H  2.202936521  9.317731652  13.582771708
 H  5.476167942  0.809370003  19.874835607
 H  2.141959698  7.221071339  24.777994939
 H  5.532627387  15.770363257  18.490504099
Al  1.691690263  4.264452670  22.004549922
Al  5.082075468  12.816024556  15.714600269
Al  1.750116431  12.793296030  15.734589876
Al  5.023644998  4.287182235  22.024143695
 C  1.296289201  16.329100237  12.781650219
 C  4.569017385  7.819762121  19.066679056
 C  1.214465548  0.432655596  24.598811564
 C  4.604787994  8.981022762  18.304256235
 C  5.516149774  8.132242221  24.629679527
 C  2.242997933  16.636482895  18.342476627
 C  5.550583336  9.293858683  12.811998979
 C  2.159819262  0.740423778  19.104368509
 C  5.491392329  0.764055622  24.925015024
 C  2.218668440  9.269319565  18.634897891
 C  5.574591780  16.660088015  13.107319920
 C  2.184271069  8.107664238  19.396786270
 C  1.272900502  8.960460497  13.142160994
 C  4.546041522  0.452207554  19.434323963
 C  1.237091567  7.799252797  24.959318748
 C  4.627844792  16.348657679  18.671903352
 C  6.749432967  15.927187771  13.328678422
 C  3.358809131  7.373638669  19.616065823
 C  0.038549831  1.162301846  24.376478798
 C  3.429217068  9.711942137  18.084236875
 C  6.690731574  7.398364319  24.410208405
 C  3.417487174  15.902510619  18.122835065
 C  0.097246030  9.691097095  13.362593284
 C  3.370519300  1.183068586  19.654710869
 C  6.712261540  14.686463270  14.160198279
 C  3.321839531  6.133293795  20.448146932
 C  0.071302334  2.399792880  23.541553136
 C  3.461799496  10.949837613  17.249904098
 C  6.653798299  6.157673075  23.578634317
 C  3.380372429  14.662187215  17.290729660
 C  0.129768721  10.928580878  14.197533592
 C  3.403227189  2.420936274  20.489076794
 O  13.349560652  4.369222931  8.612825589
 O  10.075980611  12.876263442  2.323125132
 O  13.407946061  12.898125157  3.966665623
 O  10.017626667  4.347495363  10.256421583
 O  7.823178042  14.108702275  1.817961368
 O  11.096701041  5.601137344  8.106062360
 O  7.866184009  2.823708237  10.523416506
 O  11.256577114  11.373921235  4.231654572
 O  12.177047489  5.814244990  10.587624414
 O  8.903547182  14.319086065  4.299609853
 O  12.350591102  11.608401034  1.829330680
 O  8.960141857  3.055350609  8.120746821
 O  12.292120647  3.079538913  10.749958552
 O  9.018677617  11.584334190  4.459090480
 O  12.235459370  14.343057982  1.991643024
 O  8.845087258  5.790155427  8.279977545
 O  7.924584862  11.352418536  2.056561408
 O  11.198099547  2.845087552  8.347695722
 O  7.764756118  5.579968418  10.761707664
 O  11.155167500  14.129997465  4.473283880
 H  13.334991392  4.760159101  7.728994239
 H  10.061257164  13.267933123  1.439623176
 H  13.393223297  13.289212433  4.850428232
 H  10.003077521  4.739659359  11.139710335
 H  8.865338232  15.797169228  0.384834572
 H  12.137840464  7.286907365  6.668084856
 H  8.808898466  0.836217896  11.580021824
 H  12.198794264  9.383654698  5.283794196
 H  11.249939966  7.825739345  11.605904819
 H  7.976717195  16.330119972  5.318742269
 H  11.312651966  9.922991374  0.413310103
 H  7.921990890  1.369705523  6.705705861
 H  11.253287412  1.392457473  12.162800070
 H  7.980799344  9.898642036  5.874451846
 H  11.307974776  16.352778784  0.970170516
 H  7.918110976  7.801311060  7.261366140
 H  8.866937680  9.363213060  1.003070849
 H  12.140169101  0.854851411  7.295134747
 H  8.805960857  7.266552747  12.198294080
 H  12.196628546  15.815844665  5.910803239
Al  8.355691422  4.309934078  9.424849062
Al  11.746076627  12.861505964  3.134899409
Al  8.414117590  12.838777438  3.154889016
Al  11.687646157  4.332663644  9.444442835
 C  7.960290361  16.374581646  0.201949359
 C  11.233018545  7.865243530  6.486978196
 C  7.878466708  0.478137005  12.019110704
 C  11.268789153  9.026504171  5.724555375
 C  12.180150933  8.177723630  12.049978668
 C  8.906999093  16.681964303  5.762775767
 C  12.214584496  9.339340091  0.232298119
 C  8.823820421  0.785905186  6.524667650
 C  12.155393488  0.809537030  12.345314164
 C  8.882669599  9.314800974  6.055197031
 C  12.238592939  16.705569423  0.527619060
 C  8.848272228  8.153145647  6.817085410
 C  7.936901661  9.005941906  0.562460134
 C  11.210042682  0.497688963  6.854623103
 C  7.901092726  7.844734205  12.379617888
 C  11.291845952  16.394139088  6.092202492
 C  13.413434126  15.972669179  0.748977562
 C  10.022810290  7.419120078  7.036364963
 C  6.702550990  1.207783255  11.796777938
 C  10.093218228  9.757423546  5.504536015
 C  13.354732733  7.443845728  11.830507545
 C  10.081488333  15.947992027  5.543134205
 C  6.761247189  9.736578504  0.782892424
 C  10.034520459  1.228549995  7.075010009
 C  13.376262699  14.731944679  1.580497419
 C  9.985840690  6.178775203  7.868446072
 C  6.735303493  2.445274288  10.961852276
 C  10.125800656  10.995319021  4.670203238
 C  13.317799458  6.203154484  10.998933457
 C  10.044373588  14.707668624  4.711028800
 C  6.793769881  10.974062287  1.617832732
 C  10.067228349  2.466417683  7.909375935
 O  13.349479739  4.369227001  21.192465003
 O  10.075899698  12.876267513  14.902764546
 O  13.407865148  12.898129228  16.546305037
 O  10.017545754  4.347499433  22.836060997
 O  7.823097129  14.108706346  14.397600782
 O  11.096620129  5.601141414  20.685701774
 O  7.866103096  2.823712308  23.103055920
 O  11.256496202  11.373925305  16.811293986
 O  12.176966576  5.814249060  23.167263828
 O  8.903466269  14.319090135  16.879249267
 O  12.350510189  11.608405104  14.408970094
 O  8.960060944  3.055354680  20.700386235
 O  12.292039734  3.079542984  23.329597965
 O  9.018596704  11.584338261  17.038729894
 O  12.235378458  14.343062052  14.571282438
 O  8.845006345  5.790159497  20.859616959
 O  7.924503949  11.352422606  14.636200822
 O  11.198018634  2.845091622  20.927335136
 O  7.764675205  5.579972488  23.341347078
 O  11.155086587  14.130001535  17.052923294
 H  13.334910480  4.760163172  20.308633653
 H  10.061176251  13.267937193  14.019262590
 H  13.393142385  13.289216504  17.430067646
 H  10.002996608  4.739663430  23.719349749
 H  8.865257319  15.797173298  12.964473986
 H  12.137759551  7.286911436  19.247724270
 H  8.808817553  0.836221966  24.159661238
 H  12.198713351  9.383658768  17.863433610
 H  11.249859053  7.825743415  24.185544232
 H  7.976636282  16.330124042  17.898381682
 H  11.312571053  9.922995444  12.992949517
 H  7.921909977  1.369709593  19.285345274
 H  11.253206499  1.392461543  24.742439484
 H  7.980718431  9.898646106  18.454091260
 H  11.307893863  16.352782855  13.549809930
 H  7.918030063  7.801315131  19.841005553
 H  8.866856767  9.363217131  13.582710262
 H  12.140088189  0.854855482  19.874774161
 H  8.805879945  7.266556818  24.777933493
 H  12.196547633  15.815848736  18.490442652
Al  8.355610509  4.309938149  22.004488476
Al  11.745995715  12.861510035  15.714538823
Al  8.414036678  12.838781509  15.734528430
Al  11.687565245  4.332667714  22.024082249
 C  7.960209448  16.374585716  12.781588773
 C  11.232937632  7.865247600  19.066617610
 C  7.878385795  0.478141075  24.598750118
 C  11.268708241  9.026508241  18.304194789
 C  12.180070020  8.177727700  24.629618081
 C  8.906918180  16.681968374  18.342415181
 C  12.214503583  9.339344162  12.811937532
 C  8.823739508  0.785909257  19.104307063
 C  12.155312576  0.809541101  24.924953578
 C  8.882588686  9.314805044  18.634836445
 C  12.238512026  16.705573494  13.107258474
 C  8.848191316  8.153149717  19.396724824
 C  7.936820748  9.005945976  13.142099548
 C  11.209961769  0.497693033  19.434262517
 C  7.901011813  7.844738276  24.959257302
 C  11.291765039  16.394143158  18.671841906
 C  13.413353213  15.972673250  13.328616976
 C  10.022729378  7.419124148  19.616004377
 C  6.702470078  1.207787325  24.376417352
 C  10.093137315  9.757427616  18.084175429
 C  13.354651820  7.443849798  24.410146958
 C  10.081407420  15.947996098  18.122773618
 C  6.761166277  9.736582574  13.362531838
 C  10.034439547  1.228554065  19.654649423
 C  13.376181786  14.731948749  14.160136833
 C  9.985759777  6.178779274  20.448085486
 C  6.735222580  2.445278359  23.541491690
 C  10.125719743  10.995323092  17.249842652
 C  13.317718546  6.203158554  23.578572871
 C  10.044292676  14.707672694  17.290668214
 C  6.793688968  10.974066357  14.197472146
 C  10.067147436  2.466421753  20.489015348
