     304
CELL:    13.293632     0.639706     0.000034     0.878259    19.231613     0.000003    -0.000069     0.000020    13.199760
 O  0.220357991  4.825650456  4.117515565
 O  3.982911654  14.601415381  0.817586446
 O  0.659500445  14.441455667  2.482254752
 O  3.543760735  4.985617325  5.782201110
 O  1.618792215  15.686760013  0.304309895
 O  4.503056805  6.230829580  3.604204734
 O  1.472782128  3.303761869  5.956882648
 O  5.235339544  13.079445545  2.656886876
 O  5.614792560  6.667422910  5.957097678
 O  2.730533764  16.123253267  2.657218207
 O  6.347157284  13.516036084  0.304302739
 O  2.584605678  3.740252717  3.604283161
 O  5.908004519  3.900241996  6.295501569
 O  3.023746276  13.356061887  2.995503856
 O  6.053944594  16.283222078  0.642693960
 O  2.291392439  6.507449149  3.942556160
 O  1.911933823  12.919561503  0.642900189
 O  4.796197855  3.463641913  3.942913216
 O  1.179639452  6.070966658  6.295458233
 O  4.942197407  15.846639497  2.995580630
 H  6.867007014  5.147113206  3.151041755
 H  3.982711723  14.603039146  6.450975394
 H  7.306143637  14.762934119  3.448763044
 H  3.543624294  4.987237104  0.148812145
 H  2.817901625  17.722009942  6.294990374
 H  5.702202875  8.266068134  2.994958736
 H  2.239275240  0.972945746  6.095515660
 H  6.001834913  10.748617316  2.795485291
 H  4.848408051  8.998263232  6.095402346
 H  1.964151557  18.454081797  2.795555700
 H  5.148037244  11.480839260  6.294873852
 H  1.385522513  1.705044531  2.995021226
 H  4.708945565  1.865027339  0.304922657
 H  1.824654836  11.320855594  3.604757837
 H  5.287566916  18.614064858  0.504390027
 H  1.525017020  8.838280132  3.804219230
 H  2.678434933  10.588748906  0.504260080
 H  5.562701181  1.132817178  3.804307888
 H  2.378810656  8.106199572  0.304781136
 H  6.141335883  17.881880740  3.604830211
Al  1.882089386  4.905577849  4.949796718
Al  5.644644179  14.681306053  1.649867645
Al  2.321235901  14.521379565  1.649981802
Al  5.205497324  5.065504497  4.949928134
 C  1.975077019  18.400593586  6.418075093
 C  4.859377823  8.944651622  3.118041862
 C  1.265351927  0.544101624  6.322517770
 C  5.027911359  10.319773154  3.022486878
 C  5.822323507  9.427116976  6.322415675
 C  2.938066756  18.882935536  3.022569587
 C  5.990849900  10.802242064  6.417966714
 C  2.228334605  1.026447151  3.118116189
 C  5.551756786  1.186427513  0.181831388
 C  2.667465498  10.642255594  3.481664546
 C  6.261484482  19.042915705  0.277381325
 C  2.498934345  9.267130969  3.577210034
 C  1.704513581  10.159901924  0.277253326
 C  4.588779609  0.703970166  3.577301569
 C  1.535984551  8.784780682  0.181694883
 C  5.298509352  18.560461716  3.481745460
 C  7.356443971  18.185728549  0.098232034
 C  3.593894511  8.409943903  3.398065720
 C  0.170384277  1.401284629  6.501644716
 C  3.932944490  11.176956202  3.201619342
 C  6.917284053  8.569932407  6.501566935
 C  4.033027957  18.025751031  3.201716013
 C  0.609544785  11.017082257  0.098125133
 C  3.493811611  1.561150567  3.398167777
 C  7.209781806  16.721924800  0.345373516
 C  3.447231226  6.946144564  3.645230744
 C  0.316997013  2.865073893  6.254384281
 C  4.079556068  12.640750004  2.954383208
 C  6.770626676  7.106128250  6.254423742
 C  3.886369447  16.561951280  2.954549260
 C  0.756151578  12.480871507  0.345390256
 C  3.640417265  3.024944340  3.645408582
 O  0.220323320  4.825660320  10.717395566
 O  3.982876983  14.601425245  7.417466447
 O  0.659465775  14.441465531  9.082134753
 O  3.543726065  4.985627189  12.382081111
 O  1.618757545  15.686769877  6.904189897
 O  4.503022135  6.230839444  10.204084735
 O  1.472747458  3.303771733  12.556762649
 O  5.235304874  13.079455409  9.256766877
 O  5.614757889  6.667432774  12.556977679
 O  2.730499094  16.123263131  9.257098208
 O  6.347122614  13.516045947  6.904182740
 O  2.584571008  3.740262581  10.204163162
 O  5.907969849  3.900251860  12.895381570
 O  3.023711605  13.356071751  9.595383857
 O  6.053909923  16.283231942  7.242573961
 O  2.291357769  6.507459013  10.542436161
 O  1.911899153  12.919571366  7.242780190
 O  4.796163184  3.463651777  10.542793217
 O  1.179604781  6.070976522  12.895338234
 O  4.942162736  15.846649361  9.595460631
 H  6.866972343  5.147123070  9.750921756
 H  3.982677053  14.603049010  13.050855396
 H  7.306108967  14.762943982  10.048643045
 H  3.543589624  4.987246968  6.748692146
 H  2.817866955  17.722019806  12.894870375
 H  5.702168204  8.266077998  9.594838737
 H  2.239240570  0.972955610  12.695395661
 H  6.001800243  10.748627179  9.395365292
 H  4.848373381  8.998273096  12.695282347
 H  1.964116887  18.454091661  9.395435701
 H  5.148002574  11.480849124  12.894753853
 H  1.385487842  1.705054395  9.594901227
 H  4.708910895  1.865037203  6.904802658
 H  1.824620166  11.320865458  10.204637838
 H  5.287532245  18.614074721  7.104270029
 H  1.524982349  8.838289996  10.404099231
 H  2.678400263  10.588758770  7.104140081
 H  5.562666511  1.132827042  10.404187889
 H  2.378775986  8.106209436  6.904661137
 H  6.141301213  17.881890603  10.204710212
Al  1.882054716  4.905587713  11.549676719
Al  5.644609508  14.681315917  8.249747646
Al  2.321201231  14.521389428  8.249861803
Al  5.205462654  5.065514360  11.549808135
 C  1.975042349  18.400603449  13.017955095
 C  4.859343153  8.944661486  9.717921863
 C  1.265317257  0.544111487  12.922397771
 C  5.027876689  10.319783018  9.622366879
 C  5.822288837  9.427126840  12.922295676
 C  2.938032085  18.882945399  9.622449588
 C  5.990815230  10.802251927  13.017846715
 C  2.228299934  1.026457015  9.717996191
 C  5.551722116  1.186437377  6.781711389
 C  2.667430828  10.642265457  10.081544547
 C  6.261449812  19.042925569  6.877261326
 C  2.498899674  9.267140833  10.177090035
 C  1.704478910  10.159911788  6.877133327
 C  4.588744938  0.703980030  10.177181570
 C  1.535949881  8.784790546  6.781574884
 C  5.298474682  18.560471580  10.081625462
 C  7.356409300  18.185738412  6.698112036
 C  3.593859840  8.409953766  9.997945721
 C  0.170349607  1.401294492  13.101524717
 C  3.932909819  11.176966065  9.801499343
 C  6.917249383  8.569942271  13.101446936
 C  4.032993287  18.025760895  9.801596014
 C  0.609510115  11.017092120  6.698005134
 C  3.493776941  1.561160431  9.998047778
 C  7.209747135  16.721934663  6.945253517
 C  3.447196556  6.946154428  10.245110745
 C  0.316962343  2.865083757  12.854264283
 C  4.079521398  12.640759868  9.554263209
 C  6.770592005  7.106138114  12.854303743
 C  3.886334777  16.561961144  9.554429261
 C  0.756116908  12.480881371  6.945270257
 C  3.640382594  3.024954204  10.245288583
 O  6.867174180  5.145503423  4.117532815
 O  10.629727844  14.921268348  0.817603696
 O  7.306316635  14.761308635  2.482272001
 O  10.190576925  5.305470292  5.782218359
 O  8.265608405  16.006612980  0.304327145
 O  11.149872995  6.550682548  3.604221984
 O  8.119598318  3.623614836  5.956899898
 O  11.882155734  13.399298513  2.656904125
 O  12.261608750  6.987275877  5.957114927
 O  9.377349954  16.443106234  2.657235457
 O  12.993973474  13.835889051  0.304319988
 O  9.231421868  4.060105685  3.604300410
 O  12.554820709  4.220094963  6.295518818
 O  9.670562466  13.675914855  2.995521106
 O  12.700760784  16.603075045  0.642711209
 O  8.938208629  6.827302116  3.942573409
 O  8.558750013  13.239414470  0.642917438
 O  11.443014045  3.783494880  3.942930466
 O  7.826455642  6.390819625  6.295475483
 O  11.589013596  16.166492464  2.995597880
 H  13.513823204  5.466966173  3.151059004
 H  10.629527913  14.922892113  6.450992644
 H  13.952959827  15.082787086  3.448780293
 H  10.190440484  5.307090071  0.148829394
 H  9.464717815  18.041862909  6.295007623
 H  12.349019064  8.585921101  2.994975985
 H  8.886091430  1.292798713  6.095532910
 H  12.648651103  11.068470283  2.795502540
 H  11.495224241  9.318116199  6.095419595
 H  8.610967747  18.773934764  2.795572949
 H  11.794853434  11.800692228  6.294891102
 H  8.032338703  2.024897498  2.995038476
 H  11.355761755  2.184880307  0.304939906
 H  8.471471026  11.640708561  3.604775086
 H  11.934383105  18.933917825  0.504407277
 H  8.171833209  9.158133099  3.804236479
 H  9.325251123  10.908601873  0.504277329
 H  12.209517371  1.452670145  3.804325137
 H  9.025626846  8.426052539  0.304798385
 H  12.788152073  18.201733707  3.604847460
Al  8.528905576  5.225430816  4.949813967
Al  12.291460368  15.001159021  1.649884894
Al  8.968052091  14.841232532  1.649999052
Al  11.852313514  5.385357464  4.949945383
 C  8.621893209  18.720446553  6.418092343
 C  11.506194013  9.264504589  3.118059112
 C  7.912168117  0.863954591  6.322535019
 C  11.674727549  10.639626121  3.022504127
 C  12.469139697  9.746969943  6.322432925
 C  9.584882946  19.202788503  3.022586836
 C  12.637666090  11.122095031  6.417983963
 C  8.875150795  1.346300119  3.118133439
 C  12.198572976  1.506280480  0.181848638
 C  9.314281688  10.962108561  3.481681796
 C  12.908300672  19.362768672  0.277398574
 C  9.145750534  9.586983936  3.577227284
 C  8.351329771  10.479754892  0.277270575
 C  11.235595799  1.023823133  3.577318819
 C  8.182800741  9.104633649  0.181712132
 C  11.945325542  18.880314683  3.481762710
 C  14.003260160  18.505581516  0.098249284
 C  10.240710701  8.729796870  3.398082969
 C  6.817200467  1.721137596  6.501661965
 C  10.579760679  11.496809169  3.201636591
 C  13.564100243  8.889785374  6.501584184
 C  10.679844147  18.345603998  3.201733263
 C  7.256360975  11.336935224  0.098142383
 C  10.140627801  1.881003534  3.398185026
 C  13.856597996  17.041777767  0.345390765
 C  10.094047416  7.265997531  3.645247994
 C  6.963813203  3.184926860  6.254401531
 C  10.726372258  12.960602971  2.954400458
 C  13.417442866  7.425981218  6.254440992
 C  10.533185637  16.881804248  2.954566510
 C  7.402967768  12.800724474  0.345407505
 C  10.287233455  3.344797307  3.645425831
 O  6.867139510  5.145513287  10.717412816
 O  10.629693173  14.921278212  7.417483697
 O  7.306281965  14.761318498  9.082152002
 O  10.190542255  5.305480156  12.382098360
 O  8.265573734  16.006622844  6.904207146
 O  11.149838325  6.550692411  10.204101985
 O  8.119563648  3.623624700  12.556779899
 O  11.882121064  13.399308376  9.256784126
 O  12.261574079  6.987285741  12.556994929
 O  9.377315284  16.443116098  9.257115458
 O  12.993938804  13.835898915  6.904199989
 O  9.231387197  4.060115548  10.204180411
 O  12.554786039  4.220104827  12.895398819
 O  9.670527795  13.675924718  9.595401107
 O  12.700726113  16.603084909  7.242591210
 O  8.938173959  6.827311980  10.542453410
 O  8.558715343  13.239424333  7.242797439
 O  11.442979374  3.783504744  10.542810467
 O  7.826420971  6.390829489  12.895355484
 O  11.588978926  16.166502328  9.595477881
 H  13.513788533  5.466976037  9.750939005
 H  10.629493242  14.922901977  13.050872645
 H  13.952925157  15.082796950  10.048660294
 H  10.190405814  5.307099935  6.748709395
 H  9.464683145  18.041872773  12.894887624
 H  12.348984394  8.585930965  9.594855986
 H  8.886056760  1.292808577  12.695412911
 H  12.648616433  11.068480147  9.395382541
 H  11.495189570  9.318126063  12.695299597
 H  8.610933077  18.773944628  9.395452950
 H  11.794818764  11.800702091  12.894771103
 H  8.032304032  2.024907362  9.594918477
 H  11.355727085  2.184890170  6.904819907
 H  8.471436356  11.640718425  10.204655087
 H  11.934348435  18.933927689  7.104287278
 H  8.171798539  9.158142963  10.404116480
 H  9.325216453  10.908611737  7.104157330
 H  12.209482701  1.452680009  10.404205138
 H  9.025592176  8.426062403  6.904678386
 H  12.788117403  18.201743571  10.204727461
Al  8.528870906  5.225440680  11.549693968
Al  12.291425698  15.001168884  8.249764895
Al  8.968017421  14.841242396  8.249879053
Al  11.852278843  5.385367328  11.549825384
 C  8.621858539  18.720456416  13.017972344
 C  11.506159343  9.264514453  9.717939113
 C  7.912133447  0.863964455  12.922415020
 C  11.674692879  10.639635985  9.622384129
 C  12.469105027  9.746979807  12.922312926
 C  9.584848275  19.202798367  9.622466837
 C  12.637631419  11.122104895  13.017863964
 C  8.875116124  1.346309982  9.718013440
 C  12.198538305  1.506290344  6.781728639
 C  9.314247018  10.962118424  10.081561797
 C  12.908266002  19.362778536  6.877278575
 C  9.145715864  9.586993800  10.177107285
 C  8.351295100  10.479764755  6.877150576
 C  11.235561128  1.023832997  10.177198820
 C  8.182766071  9.104643513  6.781592133
 C  11.945290872  18.880324547  10.081642711
 C  14.003225490  18.505591380  6.698129285
 C  10.240676030  8.729806733  9.997962970
 C  6.817165797  1.721147460  13.101541966
 C  10.579726009  11.496819033  9.801516592
 C  13.564065573  8.889795238  13.101464185
 C  10.679809477  18.345613862  9.801613264
 C  7.256326305  11.336945087  6.698022384
 C  10.140593131  1.881013398  9.998065027
 C  13.856563325  17.041787631  6.945270766
 C  10.094012746  7.266007395  10.245127995
 C  6.963778533  3.184936724  12.854281532
 C  10.726337587  12.960612835  9.554280459
 C  13.417408195  7.425991081  12.854320993
 C  10.533150967  16.881814111  9.554446511
 C  7.402933097  12.800734338  6.945287506
 C  10.287198784  3.344807171  10.245305832
