     456
CELL:    20.889601     0.000000     0.000000    -0.000000    20.889601    -0.000000    -0.000000    -0.000000    20.889599
Zr  20.889601040  20.889601183  2.499845833
Zr -0.000000013 -0.000000033  18.389753064
Zr  2.499845698  20.889601144  0.000000092
Zr  18.389755406 -0.000000023  20.889598734
Zr -0.000000002  2.499845727  0.000000027
Zr  20.889601130  18.389755519  0.000000051
Zr -0.000000032  10.444800586  12.944645059
Zr  20.889601052  10.444800551  7.944953631
Zr  2.499845659  10.444800580  10.444799319
Zr  18.389755452  10.444800569  10.444799432
Zr -0.000000048  12.944646252  10.444799303
Zr  20.889601122  7.944954844  10.444799449
Zr  10.444800586 -0.000000011  12.944645080
Zr  10.444800444  20.889601121  7.944953610
Zr  12.944646208 -0.000000013  10.444799294
Zr  7.944954798 -0.000000023  10.444799463
Zr  10.444800545  2.499845696  10.444799339
Zr  10.444800490  18.389755510  10.444799393
Zr  10.444800552  10.444800590  2.499845782
Zr  10.444800485  10.444800561  18.389753074
Zr  12.944646231  10.444800627  0.000000052
Zr  7.944954733  10.444800521  20.889598732
Zr  10.444800489  12.944646270  0.000000067
Zr  10.444800525  7.944954812  20.889598739
 O  19.481609583  19.481609688  1.407991935
 O  1.407991579  1.407991572  1.407991982
 O  1.407991425  19.481609611  19.481606858
 O  19.481609580  1.407991506  19.481606869
 O  19.481609600  9.036809094  11.852791394
 O  1.407991492  11.852792162  11.852791248
 O  1.407991519  9.036809033  9.036807459
 O  19.481609584  11.852792142  9.036807572
 O  9.036809032  19.481609668  11.852791383
 O  11.852792140  1.407991531  11.852791258
 O  11.852792057  19.481609648  9.036807545
 O  9.036808968  1.407991548  9.036807486
 O  9.036809019  9.036809042  1.407992019
 O  11.852792115  11.852792184  1.407991895
 O  11.852792092  9.036809066  19.481606849
 O  9.036808959  11.852792131  19.481606839
 O  1.962572897  20.826914006  3.567208735
 O  18.927027639  0.062687142  3.567208565
 O  18.927028089  20.826914087  17.322390097
 O  1.962572947  0.062687073  17.322390001
 O  3.567208362  1.962573673  20.826911661
 O  3.567208278  18.927027132  0.062687207
 O  17.322392605  18.927027387  20.826911775
 O  17.322392682  1.962573665  0.062687005
 O  20.826913892  3.567208353  1.962574128
 O  0.062687232  3.567208166  18.927024393
 O  20.826913771  17.322392849  18.927024636
 O  0.062687255  17.322392724  1.962573827
 O  0.062687098  1.962572843  17.322389947
 O  20.826913993  18.927028070  17.322390164
 O  0.062687100  18.927027823  3.567208550
 O  20.826913929  1.962573125  3.567208690
 O  1.962573780  3.567208337  20.826911646
 O  18.927027194  3.567208382  0.062687197
 O  18.927027173  17.322392768  20.826911803
 O  1.962573574  17.322392661  0.062686963
 O  3.567208183  0.062687202  18.927024557
 O  3.567208254  20.826913886  1.962574242
 O  17.322392663  0.062687336  1.962573752
 O  17.322392784  20.826913916  18.927024536
 O  1.962572906  10.382113565  14.012008096
 O  18.927028088  10.507487756  14.012008147
 O  18.927027593  10.382113510  6.877590945
 O  1.962572979  10.507487837  6.877590665
 O  3.567208240  12.407374584  10.382112305
 O  3.567208394  8.482226835  10.507486586
 O  17.322392580  8.482227014  10.382112485
 O  17.322392740  12.407374424  10.507486390
 O  20.826913928  14.012008970  12.407373411
 O  0.062687209  14.012009016  8.482225419
 O  20.826913739  6.877592206  8.482225461
 O  0.062687312  6.877592428  12.407373803
 O  0.062687099  12.407373873  6.877590819
 O  20.826913878  8.482227349  6.877590845
 O  0.062687145  8.482227788  14.012008219
 O  20.826914047  12.407373789  14.012007972
 O  1.962573568  14.012009102  10.382112340
 O  18.927027332  14.012009023  10.507486515
 O  18.927027078  6.877592260  10.382112508
 O  1.962573768  6.877592178  10.507486413
 O  3.567208219  10.507487966  8.482225167
 O  3.567208191  10.382113389  12.407373606
 O  17.322392863  10.507487927  12.407373623
 O  17.322392579  10.382113335  8.482225706
 O  12.407373773  20.826914142  14.012007934
 O  8.482227819  0.062687178  14.012008283
 O  8.482227229  20.826913926  6.877590837
 O  12.407373765  0.062687081  6.877590772
 O  14.012009068  1.962573557  10.382112319
 O  14.012008943  18.927027393  10.507486477
 O  6.877592187  18.927027190  10.382112497
 O  6.877592153  1.962573816  10.507486482
 O  10.382113336  3.567208221  12.407373651
 O  10.507487929  3.567208268  8.482225224
 O  10.382113284  17.322392642  8.482225632
 O  10.507487856  17.322392920  12.407373548
 O  10.507487793  1.962573030  6.877590692
 O  10.382113402  18.927027690  6.877590949
 O  10.507487718  18.927028097  14.012008087
 O  10.382113525  1.962572910  14.012008108
 O  12.407374581  3.567208284  10.382112340
 O  8.482226781  3.567208422  10.507486599
 O  8.482226893  17.322392648  10.382112477
 O  12.407374361  17.322392812  10.507486364
 O  14.012008936  0.062687246  8.482225399
 O  14.012008922  20.826914023  12.407373348
 O  6.877592440  0.062687356  12.407373898
 O  6.877592091  20.826913797  8.482225517
 O  12.407373944  10.382113554  3.567208529
 O  8.482227458  10.507487908  3.567208708
 O  8.482227638  10.382113476  17.322389952
 O  12.407373608  10.507487716  17.322390090
 O  14.012008842  12.407374466  20.826911735
 O  14.012009160  8.482227154  0.062687210
 O  6.877592093  8.482226698  20.826911681
 O  6.877592237  12.407374553  0.062686989
 O  10.382113386  14.012009093  1.962573912
 O  10.507487743  14.012008905  18.927024713
 O  10.382113242  6.877592346  18.927024391
 O  10.507488059  6.877592280  1.962574077
 O  10.507487663  12.407373719  17.322390117
 O  10.382113442  8.482227745  17.322389957
 O  10.507487875  8.482227470  3.567208698
 O  10.382113458  12.407373928  3.567208514
 O  12.407374186  14.012009006  20.826911738
 O  8.482226893  14.012009116  0.062687186
 O  8.482226772  6.877592091  20.826911705
 O  12.407374733  6.877592355  0.062686984
 O  14.012008826  10.507487846  18.927024662
 O  14.012009032  10.382113471  1.962573891
 O  6.877592252  10.507488045  1.962574103
 O  6.877592275  10.382113248  18.927024402
 O  19.852836020  19.852836137  19.852833504
 O  1.036764906  1.036764897  19.852833541
 O  19.852836173  1.036764970  1.036765234
 O  1.036764912  19.852836202  1.036765219
 O  19.852836106  9.408035615  9.408034268
 O  1.036764909  11.481565576  9.408034159
 O  19.852836087  11.481565642  11.481564708
 O  1.036764929  9.408035639  11.481564613
 O  9.408035524  19.852836176  9.408034255
 O  11.481565539  1.036764936  9.408034167
 O  9.408035615  1.036764943  11.481564634
 O  11.481565601  19.852836157  11.481564679
 O  9.408035537  9.408035597  19.852833537
 O  11.481565538  11.481565630  19.852833477
 O  9.408035597  11.481565598  1.036765215
 O  11.481565594  9.408035669  1.036765227
 C  4.234189767  20.749538193  4.234189308
 C  16.655410942  0.140062988  4.234188862
 C  16.655411321  20.749538352  16.655409578
 C  4.234189725  0.140062857  16.655409518
 C  4.234189760  4.234189687  20.749535688
 C  4.234189518  16.655411201  0.140063032
 C  16.655411254  16.655411491  20.749535908
 C  16.655411316  4.234189701  0.140062978
 C  20.749538185  4.234189883  4.234189278
 C  0.140062810  4.234189705  16.655409439
 C  20.749538291  16.655411362  16.655409646
 C  0.140062951  16.655411001  4.234188851
 C  4.234189675  10.304737731  14.678988692
 C  16.655411248  10.584863495  14.678988550
 C  16.655411057  10.304737632  6.210610521
 C  4.234189796  10.584863691  6.210610207
 C  4.234189538  14.678990557  10.304736276
 C  4.234189716  6.210610808  10.584862322
 C  16.655411225  6.210610967  10.304736458
 C  16.655411362  14.678990337  10.584862274
 C  20.749538311  14.678990520  14.678988513
 C  0.140062941  14.678990635  6.210610417
 C  20.749538109  6.210610705  6.210610373
 C  0.140062841  6.210610857  14.678988690
 C  14.678990515  20.749538368  14.678988434
 C  6.210610944  0.140062930  14.678988805
 C  6.210610547  20.749538109  6.210610463
 C  14.678990496  0.140062961  6.210610338
 C  14.678990489  4.234189608  10.304736350
 C  14.678990289  16.655411446  10.584862257
 C  6.210610953  16.655411260  10.304736371
 C  6.210610758  4.234189720  10.584862351
 C  10.304737724  4.234189735  14.678988691
 C  10.584863607  4.234189818  6.210610207
 C  10.304737570  16.655411058  6.210610556
 C  10.584863362  16.655411327  14.678988536
 C  14.678990573  10.304737689  4.234189087
 C  6.210610567  10.584863711  4.234189040
 C  6.210610875  10.304737667  16.655409406
 C  14.678990421  10.584863444  16.655409659
 C  14.678990217  14.678990380  20.749535823
 C  14.678990541  6.210611036  0.140062962
 C  6.210610804  6.210610743  20.749535750
 C  6.210610908  14.678990482  0.140063042
 C  10.304737627  14.678990677  4.234189032
 C  10.584863331  14.678990438  16.655409627
 C  10.304737704  6.210610905  16.655409418
 C  10.584863633  6.210610595  4.234189057
 C  5.588818226  20.739960069  3.873443805
 C  15.300782928  0.149641116  3.873444664
 C  15.300782703  20.739960200  17.016154938
 C  5.588818455  0.149641033  17.016155164
 C  3.873444779  5.588818387  20.739957424
 C  3.873445529  15.300782860  0.149640628
 C  17.016156150  15.300782677  20.739957644
 C  17.016156654  5.588818656  0.149641926
 C  20.739960040  3.873445387  5.588818162
 C  0.149640935  3.873445794  15.300780744
 C  20.739960234  17.016155686  15.300780672
 C  0.149641067  17.016156471  5.588818272
 C  0.149640976  5.588818462  17.016155247
 C  20.739960145  15.300782740  17.016154935
 C  0.149641091  15.300782976  3.873444558
 C  20.739960069  5.588818351  3.873443934
 C  5.588818356  3.873445002  20.739957432
 C  15.300782872  3.873445455  0.149640556
 C  15.300782556  17.016156063  20.739957630
 C  5.588818558  17.016156827  0.149641998
 C  3.873445637  0.149640998  15.300780783
 C  3.873445403  20.739960061  5.588818191
 C  17.016156496  0.149641094  5.588818293
 C  17.016155550  20.739960296  15.300780624
 C  5.588818435  10.295159557  14.318242806
 C  15.300782760  10.594441592  14.318243322
 C  15.300782845  10.295159431  6.571354807
 C  5.588818209  10.594441814  6.571355389
 C  3.873445358  16.033618876  10.295157999
 C  3.873444847  4.855982097  10.594439868
 C  17.016156659  4.855981950  10.295158142
 C  17.016156153  16.033619069  10.594441167
 C  20.739960179  14.318245875  16.033617465
 C  0.149641066  14.318245407  4.855981064
 C  20.739960050  6.571355271  4.855981323
 C  0.149640964  6.571354593  16.033617341
 C  0.149641088  16.033618764  6.571354908
 C  20.739959969  4.855982194  6.571355398
 C  0.149640978  4.855982064  14.318242701
 C  20.739960217  16.033618992  14.318243353
 C  5.588818498  14.318244987  10.295157961
 C  15.300782674  14.318245541  10.594439812
 C  15.300782810  6.571355070  10.295158099
 C  5.588818360  6.571355576  10.594441245
 C  3.873445263  10.594441782  4.855981151
 C  3.873445748  10.295159540  16.033617316
 C  17.016155699  10.594441563  16.033617559
 C  17.016156365  10.295159551  4.855981168
 C  16.033618908  20.739960277  14.318243441
 C  4.855982054  0.149641062  14.318242589
 C  4.855982129  20.739959983  6.571355210
 C  16.033618684  0.149641112  6.571355016
 C  14.318244930  5.588818565  10.295158049
 C  14.318245454  15.300782719  10.594439802
 C  6.571355050  15.300782861  10.295158009
 C  6.571355558  5.588818420  10.594441261
 C  10.295159552  3.873445796  16.033617322
 C  10.594441688  3.873445368  4.855981187
 C  10.295159477  17.016156448  4.855981154
 C  10.594441422  17.016155762  16.033617512
 C  10.594441728  5.588818278  6.571355443
 C  10.295159379  15.300782905  6.571354771
 C  10.594441457  15.300782788  14.318243257
 C  10.295159556  5.588818489  14.318242847
 C  16.033618822  3.873445467  10.295158088
 C  4.855982083  3.873444899  10.594439884
 C  4.855981888  17.016156703  10.295158041
 C  16.033618982  17.016156199  10.594441160
 C  14.318245471  0.149641076  4.855981049
 C  14.318245725  20.739960233  16.033617440
 C  6.571354461  0.149641044  16.033617384
 C  6.571355380  20.739960045  4.855981294
 C  16.033618748  10.295159558  3.873444445
 C  4.855982220  10.594441814  3.873444012
 C  4.855981966  10.295159477  17.016155399
 C  16.033618856  10.594441561  17.016154769
 C  14.318245430  16.033619048  20.739957589
 C  14.318244891  4.855982021  0.149640544
 C  6.571355483  4.855982072  20.739957462
 C  6.571355121  16.033618857  0.149642002
 C  10.295159437  14.318245387  5.588818255
 C  10.594441417  14.318245922  15.300780657
 C  10.295159577  6.571354553  15.300780782
 C  10.594441710  6.571355303  5.588818132
 C  10.594441430  16.033618974  17.016154836
 C  10.295159514  4.855982028  17.016155401
 C  10.594441725  4.855982241  3.873444006
 C  10.295159489  16.033618802  3.873444465
 C  16.033618866  14.318245474  20.739957600
 C  4.855981932  14.318245036  0.149640635
 C  4.855982073  6.571355625  20.739957454
 C  16.033618873  6.571355034  0.149641918
 C  14.318245816  10.594441536  15.300780628
 C  14.318245375  10.295159494  5.588818279
 C  6.571355287  10.594441795  5.588818141
 C  6.571354506  10.295159553  15.300780768
 C  3.177990295  20.796613616  3.177988703
 C  17.711611449  0.092987570  3.177989277
 C  17.711610809  20.796613710  17.711610203
 C  3.177990039  0.092987454  17.711609914
 C  3.177989203  3.177989390  20.796611298
 C  3.177989501  17.711612085  0.092987428
 C  17.711611814  17.711611854  20.796611480
 C  17.711612007  3.177989514  0.092987423
 C  20.796613590  3.177990133  3.177988945
 C  0.092987460  3.177990270  17.711610094
 C  20.796613611  17.711611034  17.711610107
 C  0.092987516  17.711611283  3.177989024
 C  3.177990139  10.351813150  13.622788179
 C  17.711610906  10.537788144  13.622788132
 C  17.711611414  10.351813083  7.266810230
 C  3.177990124  10.537788242  7.266810616
 C  3.177989416  13.622789809  10.351811940
 C  3.177989218  7.266811230  10.537786801
 C  17.711612050  7.266811056  10.351812138
 C  17.711611827  13.622789887  10.537786758
 C  20.796613679  13.622790645  13.622788325
 C  0.092987493  13.622790646  7.266810496
 C  20.796613498  7.266810691  7.266810484
 C  0.092987514  7.266810141  13.622787881
 C  13.622790520  20.796613762  13.622788374
 C  7.266810054  0.092987573  13.622787833
 C  7.266810694  20.796613531  7.266810372
 C  13.622790619  0.092987507  7.266810503
 C  13.622789692  3.177989556  10.351811968
 C  13.622789835  17.711611915  10.537786728
 C  7.266811084  17.711612032  10.351812102
 C  7.266811182  3.177989245  10.537786842
 C  10.351813115  3.177990236  13.622788140
 C  10.537788188  3.177990124  7.266810586
 C  10.351813009  17.711611345  7.266810355
 C  10.537788063  17.711611067  13.622788174
 C  13.622790515  10.351813160  3.177989096
 C  7.266810450  10.537788301  3.177988823
 C  7.266810210  10.351813052  17.711610167
 C  13.622790639  10.537788081  17.711609980
 C  13.622789937  13.622789795  20.796611396
 C  13.622789560  7.266810960  0.092987411
 C  7.266811142  7.266811360  20.796611364
 C  7.266811186  13.622789847  0.092987432
 C  10.351813078  13.622790688  3.177988956
 C  10.537787992  13.622790639  17.711609931
 C  10.351813053  7.266810204  17.711610244
 C  10.537788270  7.266810556  3.177988886
 H  5.849581682  20.741180016  2.816065890
 H  15.040019085  0.148421237  2.816065325
 H  15.040019345  20.741180059  18.073532944
 H  5.849581366  0.148421210  18.073532742
 H  2.816065983  5.849581959  20.741177150
 H  2.816065564  15.040018848  0.148420377
 H  18.073535046  15.040019174  20.741177436
 H  18.073534851  5.849581805  0.148422739
 H  20.741179993  2.816065610  5.849581956
 H  0.148421062  2.816065257  15.040016527
 H  20.741180199  18.073535671  15.040016916
 H  0.148421127  18.073535181  5.849581532
 H  0.148421178  5.849581395  18.073532661
 H  20.741179994  15.040019413  18.073532995
 H  0.148421209  15.040019078  2.816065353
 H  20.741180006  5.849581745  2.816065872
 H  5.849581951  2.816065919  20.741177166
 H  15.040018890  2.816065690  0.148420323
 H  15.040019001  18.073535265  20.741177411
 H  5.849581690  18.073534805  0.148422800
 H  2.816065296  0.148421109  15.040016538
 H  2.816065514  20.741180040  5.849581935
 H  18.073535076  0.148421156  5.849581606
 H  18.073535609  20.741180275  15.040016886
 H  5.849581329  10.296379387  13.260865499
 H  15.040019401  10.593221708  13.260865171
 H  15.040019035  10.296379239  7.628734082
 H  5.849581653  10.593221906  7.628733632
 H  2.816065593  16.294382885  10.296377711
 H  2.816065935  4.595218537  10.593219570
 H  18.073534813  4.595218829  10.296377876
 H  18.073535151  16.294382610  10.593221890
 H  20.741180104  13.260866194  16.294381246
 H  0.148421127  13.260866532  4.595217824
 H  20.741180002  7.628734998  4.595217563
 H  0.148421101  7.628735324  16.294381558
 H  0.148421200  16.294382661  7.628733970
 H  20.741179815  4.595218842  7.628733752
 H  0.148421170  4.595219140  13.260865480
 H  20.741180133  16.294382333  13.260865199
 H  5.849581631  13.260866927  10.296377641
 H  15.040019116  13.260866593  10.593219499
 H  15.040018826  7.628734957  10.296377806
 H  5.849581955  7.628734592  10.593222001
 H  2.816065572  10.593221809  4.595217437
 H  2.816065206  10.296379396  16.294381571
 H  18.073535508  10.593221613  16.294381316
 H  18.073535154  10.296379492  4.595217857
 H  16.294382278  20.741180206  13.260865132
 H  4.595219151  0.148421258  13.260865545
 H  4.595218743  20.741179849  7.628733808
 H  16.294382542  0.148421222  7.628733959
 H  13.260866904  5.849581699  10.296377718
 H  13.260866539  15.040019182  10.593219481
 H  7.628734885  15.040018863  10.296377722
 H  7.628734551  5.849581985  10.593222033
 H  10.296379396  2.816065262  16.294381562
 H  10.593221706  2.816065574  4.595217446
 H  10.296379409  18.073535209  4.595217912
 H  10.593221466  18.073535609  16.294381301
 H  10.593221820  5.849581688  7.628733615
 H  10.296379194  15.040019026  7.628734074
 H  10.593221568  15.040019467  13.260865174
 H  10.296379360  5.849581389  13.260865501
 H  16.294382821  2.816065618  10.296377787
 H  4.595218504  2.816065957  10.593219600
 H  4.595218782  18.073534897  10.296377777
 H  16.294382548  18.073535229  10.593221879
 H  13.260866466  0.148421117  4.595217767
 H  13.260866179  20.741180162  16.294381211
 H  7.628735348  0.148421182  16.294381614
 H  7.628734849  20.741180002  4.595217567
 H  16.294382591  10.296379478  2.816065493
 H  4.595218786  10.593221901  2.816065655
 H  4.595219087  10.296379229  18.073532632
 H  16.294382233  10.593221654  18.073533066
 H  13.260866453  16.294382556  20.741177358
 H  13.260866989  4.595218886  0.148420298
 H  7.628734577  4.595218531  20.741177204
 H  7.628734918  16.294382888  0.148422796
 H  10.296379350  13.260866551  5.849581513
 H  10.593221455  13.260866191  15.040016873
 H  10.296379438  7.628735362  15.040016560
 H  10.593221745  7.628734913  5.849581888
 H  10.593221517  16.294382296  18.073533023
 H  10.296379273  4.595219129  18.073532643
 H  10.593221815  4.595218832  2.816065690
 H  10.296379408  16.294382707  2.816065473
 H  16.294382457  13.260866596  20.741177375
 H  4.595218835  13.260866920  0.148420387
 H  4.595218507  7.628734572  20.741177193
 H  16.294382861  7.628735057  0.148422719
 H  13.260866173  10.593221566  15.040016882
 H  13.260866496  10.296379401  5.849581596
 H  7.628734849  10.593221826  5.849581873
 H  7.628735314  10.296379410  15.040016531
 H  18.923036443  18.923036541  1.966565175
 H  18.923036452  1.966564614  18.923033641
 H  1.966564547  18.923036507  18.923033618
 H  1.966564631  1.966564604  1.966565099
 H  18.923036445  8.478236009  12.411364657
 H  18.923036442  12.411365306  8.478234382
 H  1.966564669  8.478235978  8.478234264
 H  1.966564540  12.411365233  12.411364468
 H  8.478235943  18.923036516  12.411364651
 H  8.478235895  1.966564671  8.478234284
 H  12.411365244  18.923036517  8.478234356
 H  12.411365231  1.966564566  12.411364465
 H  8.478235926  8.478235977  1.966565246
 H  8.478235907  12.411365265  18.923033578
 H  12.411365237  8.478236016  18.923033619
 H  12.411365229  12.411365274  1.966565044
