     252
CELL:    16.953976    -0.000000    -0.000000    -0.000000    16.953976    -0.000000     0.000000    -0.000000    16.953976
 O  6.358425520  2.052811653  9.183558246
 O  10.595549826  14.901164584  9.183558313
 O  10.595549941  2.052811748  7.770418224
 O  6.358425636  14.901164680  7.770417882
 O  9.183558246  6.358425520  2.052811653
 O  9.183558313  10.595549826  14.901164584
 O  7.770418224  10.595549941  2.052811748
 O  7.770417882  6.358425636  14.901164680
 O  2.052811653  9.183558246  6.358425520
 O  14.901164584  9.183558313  10.595549826
 O  2.052811748  7.770418224  10.595549941
 O  14.901164680  7.770417882  6.358425636
 O  14.835414686  10.529799959  0.706570170
 O  2.118562616  6.424176295  0.706570133
 O  2.118562517  10.529799863  16.247406025
 O  14.835414587  6.424176199  16.247406338
 O  0.706570170  14.835414686  10.529799959
 O  0.706570133  2.118562616  6.424176295
 O  16.247406025  2.118562517  10.529799863
 O  16.247406338  14.835414587  6.424176199
 O  10.529799959  0.706570170  14.835414686
 O  6.424176295  0.706570133  2.118562616
 O  10.529799863  16.247406025  2.118562517
 O  6.424176199  16.247406338  14.835414587
 H  6.562152961  14.386362852  12.356251596
 H  10.391823880  2.567613972  12.356251596
 H  10.391823880  14.386362852  4.597724736
 H  6.562152961  2.567613972  4.597724736
 H  12.356251596  6.562152961  14.386362852
 H  12.356251596  10.391823880  2.567613972
 H  4.597724736  10.391823880  14.386362852
 H  4.597724736  6.562152961  2.567613972
 H  14.386362852  12.356251596  6.562152961
 H  2.567613972  12.356251596  10.391823880
 H  14.386362852  4.597724736  10.391823880
 H  2.567613972  4.597724736  6.562152961
 H  14.386362852  6.562152961  12.356251596
 H  2.567613972  10.391823880  12.356251596
 H  14.386362852  10.391823880  4.597724736
 H  2.567613972  6.562152961  4.597724736
 H  6.562152961  12.356251596  14.386362852
 H  10.391823880  12.356251596  2.567613972
 H  10.391823880  4.597724736  14.386362852
 H  6.562152961  4.597724736  2.567613972
 H  12.356251596  14.386362852  6.562152961
 H  12.356251596  2.567613972  10.391823880
 H  4.597724736  14.386362852  10.391823880
 H  4.597724736  2.567613972  6.562152961
 H  15.039140619  5.909374194  3.879263430
 H  1.914835205  11.044601647  3.879263430
 H  1.914835205  5.909374194  13.074712903
 H  15.039140619  11.044601647  13.074712903
 H  3.879263430  15.039140619  5.909374194
 H  3.879263430  1.914835205  11.044601647
 H  13.074712903  1.914835205  5.909374194
 H  13.074712903  15.039140619  11.044601647
 H  5.909374194  3.879263430  15.039140619
 H  11.044601647  3.879263430  1.914835205
 H  5.909374194  13.074712903  1.914835205
 H  11.044601647  13.074712903  15.039140619
 H  5.909374194  15.039140619  3.879263430
 H  11.044601647  1.914835205  3.879263430
 H  5.909374194  1.914835205  13.074712903
 H  11.044601647  15.039140619  13.074712903
 H  15.039140619  3.879263430  5.909374194
 H  1.914835205  3.879263430  11.044601647
 H  1.914835205  13.074712903  5.909374194
 H  15.039140619  13.074712903  11.044601647
 H  3.879263430  5.909374194  15.039140619
 H  3.879263430  11.044601647  1.914835205
 H  13.074712903  5.909374194  1.914835205
 H  13.074712903  11.044601647  15.039140619
 H  1.990857779  6.408984528  9.273032018
 H  14.963118506  10.544991375  9.273032078
 H  1.990857865  10.544991479  7.680943931
 H  14.963118592  6.408984632  7.680943622
 H  6.408984528  9.273032018  1.990857779
 H  10.544991375  9.273032078  14.963118506
 H  10.544991479  7.680943931  1.990857865
 H  6.408984632  7.680943622  14.963118592
 H  9.273032018  1.990857779  6.408984528
 H  9.273032078  14.963118506  10.544991375
 H  7.680943931  1.990857865  10.544991479
 H  7.680943622  14.963118592  6.408984632
 H  10.467846033  14.885973136  0.796044441
 H  6.486130178  2.068003612  0.796044408
 H  10.467845947  2.068003523  16.157932276
 H  6.486130092  14.885973047  16.157932558
 H  14.885973136  0.796044441  10.467846033
 H  2.068003612  0.796044408  6.486130178
 H  2.068003523  16.157932276  10.467845947
 H  14.885973047  16.157932558  6.486130092
 H  0.796044441  10.467846033  14.885973136
 H  0.796044408  6.486130178  2.068003612
 H  16.157932276  10.467845947  2.068003523
 H  16.157932558  6.486130092  14.885973047
Zn  8.476988166  0.000000000  12.715482249
Zn  8.476988166  0.000000000  4.238494083
Zn  12.715482249  8.476988166  0.000000000
Zn  4.238494083  8.476988166  0.000000000
Zn  0.000000000  12.715482249  8.476988166
Zn  0.000000000  4.238494083  8.476988166
Zn  0.000000000  8.476988166  12.715482249
Zn  0.000000000  8.476988166  4.238494083
Zn  8.476988166  12.715482249  0.000000000
Zn  8.476988166  4.238494083  0.000000000
Zn  12.715482249  0.000000000  8.476988166
Zn  4.238494083  0.000000000  8.476988166
 C  6.396428560  0.095552003  10.557547772
 C  10.557547772  16.858424177  10.557547772
 C  10.557547772  0.095552003  6.396428560
 C  6.396428560  16.858424177  6.396428560
 C  10.557547772  6.396428560  0.095552003
 C  10.557547772  10.557547772  16.858424177
 C  6.396428560  10.557547772  0.095552003
 C  6.396428560  6.396428560  16.858424177
 C  0.095552003  10.557547772  6.396428560
 C  16.858424177  10.557547772  10.557547772
 C  0.095552003  6.396428560  10.557547772
 C  16.858424177  6.396428560  6.396428560
 C  14.873416727  8.572540322  2.080559606
 C  2.080559606  8.381436011  2.080559606
 C  2.080559606  8.572540322  14.873416727
 C  14.873416727  8.381436011  14.873416727
 C  2.080559606  14.873416727  8.572540322
 C  2.080559606  2.080559606  8.381436011
 C  14.873416727  2.080559606  8.572540322
 C  14.873416727  14.873416727  8.381436011
 C  8.572540322  2.080559606  14.873416727
 C  8.381436011  2.080559606  2.080559606
 C  8.572540322  14.873416727  2.080559606
 C  8.381436011  14.873416727  14.873416727
 C  6.294912950  15.146551033  11.630705245
 C  10.659062874  1.807425672  11.630705245
 C  10.659062874  15.146551033  5.323271087
 C  6.294912950  1.807425672  5.323271087
 C  11.630705245  6.294912950  15.146551033
 C  11.630705245  10.659062874  1.807425672
 C  5.323271087  10.659062874  15.146551033
 C  5.323271087  6.294912950  1.807425672
 C  15.146551033  11.630705245  6.294912950
 C  1.807425672  11.630705245  10.659062874
 C  15.146551033  5.323271087  10.659062874
 C  1.807425672  5.323271087  6.294912950
 C  15.146551033  6.294912950  11.630705245
 C  1.807425672  10.659062874  11.630705245
 C  15.146551033  10.659062874  5.323271087
 C  1.807425672  6.294912950  5.323271087
 C  6.294912950  11.630705245  15.146551033
 C  10.659062874  11.630705245  1.807425672
 C  10.659062874  5.323271087  15.146551033
 C  6.294912950  5.323271087  1.807425672
 C  11.630705245  15.146551033  6.294912950
 C  11.630705245  1.807425672  10.659062874
 C  5.323271087  15.146551033  10.659062874
 C  5.323271087  1.807425672  6.294912950
 C  14.771901625  6.669562358  3.153717079
 C  2.182075216  10.284413466  3.153717079
 C  2.182075216  6.669562358  13.800259253
 C  14.771901625  10.284413466  13.800259253
 C  3.153717079  14.771901625  6.669562358
 C  3.153717079  2.182075216  10.284413466
 C  13.800259253  2.182075216  6.669562358
 C  13.800259253  14.771901625  10.284413466
 C  6.669562358  3.153717079  14.771901625
 C  10.284413466  3.153717079  2.182075216
 C  6.669562358  13.800259253  2.182075216
 C  10.284413466  13.800259253  14.771901625
 C  6.669562358  14.771901625  3.153717079
 C  10.284413466  2.182075216  3.153717079
 C  6.669562358  2.182075216  13.800259253
 C  10.284413466  14.771901625  13.800259253
 C  14.771901625  3.153717079  6.669562358
 C  2.182075216  3.153717079  10.284413466
 C  2.182075216  13.800259253  6.669562358
 C  14.771901625  13.800259253  10.284413466
 C  3.153717079  6.669562358  14.771901625
 C  3.153717079  10.284413466  2.182075216
 C  13.800259253  6.669562358  2.182075216
 C  13.800259253  10.284413466  14.771901625
 C  6.868223714  1.428110096  10.085752110
 C  10.085752110  15.525866626  10.085752110
 C  10.085752110  1.428110096  6.868224222
 C  6.868223714  15.525866626  6.868224222
 C  10.085752110  6.868223714  1.428110096
 C  10.085752110  10.085752110  15.525866626
 C  6.868224222  10.085752110  1.428110096
 C  6.868224222  6.868223714  15.525866626
 C  1.428110096  10.085752110  6.868223714
 C  15.525866626  10.085752110  10.085752110
 C  1.428110096  6.868224222  10.085752110
 C  15.525866626  6.868224222  6.868223714
 C  15.345212389  9.905097873  1.608763944
 C  1.608764452  7.048877951  1.608763944
 C  1.608764452  9.905097873  15.345212389
 C  15.345212389  7.048877951  15.345212389
 C  1.608763944  15.345212389  9.905097873
 C  1.608763944  1.608764452  7.048877951
 C  15.345212389  1.608764452  9.905097873
 C  15.345212389  15.345212389  7.048877951
 C  9.905097873  1.608763944  15.345212389
 C  7.048877951  1.608763944  1.608764452
 C  9.905097873  15.345212389  1.608764452
 C  7.048877951  15.345212389  15.345212389
 N  6.965794686  16.351832837  11.565159473
 N  9.988182138  0.602143936  11.565159473
 N  9.988182138  16.351832837  5.388816859
 N  6.965794686  0.602143936  5.388816859
 N  11.565159473  6.965794686  16.351832837
 N  11.565159473  9.988182138  0.602143936
 N  5.388816859  9.988182138  16.351832837
 N  5.388816859  6.965794686  0.602143936
 N  16.351832837  11.565159473  6.965794686
 N  0.602143936  11.565159473  9.988182138
 N  16.351832837  5.388816859  9.988182138
 N  0.602143936  5.388816859  6.965794686
 N  16.351832837  6.965794686  11.565159473
 N  0.602143936  9.988182138  11.565159473
 N  16.351832837  9.988182138  5.388816859
 N  0.602143936  6.965794686  5.388816859
 N  6.965794686  11.565159473  16.351832837
 N  9.988182138  11.565159473  0.602143936
 N  9.988182138  5.388816859  16.351832837
 N  6.965794686  5.388816859  0.602143936
 N  11.565159473  16.351832837  6.965794686
 N  11.565159473  0.602143936  9.988182138
 N  5.388816859  16.351832837  9.988182138
 N  5.388816859  0.602143936  6.965794686
 N  15.442782361  7.874844162  3.088171307
 N  1.511193480  9.079131662  3.088171307
 N  1.511193480  7.874844162  13.865805026
 N  15.442782361  9.079131662  13.865805026
 N  3.088171307  15.442782361  7.874844162
 N  3.088171307  1.511193480  9.079131662
 N  13.865805026  1.511193480  7.874844162
 N  13.865805026  15.442782361  9.079131662
 N  7.874844162  3.088171307  15.442782361
 N  9.079131662  3.088171307  1.511193480
 N  7.874844162  13.865805026  1.511193480
 N  9.079131662  13.865805026  15.442782361
 N  7.874844162  15.442782361  3.088171307
 N  9.079131662  1.511193480  3.088171307
 N  7.874844162  1.511193480  13.865805026
 N  9.079131662  15.442782361  13.865805026
 N  15.442782361  3.088171307  7.874844162
 N  1.511193480  3.088171307  9.079131662
 N  1.511193480  13.865805026  7.874844162
 N  15.442782361  13.865805026  9.079131662
 N  3.088171307  7.874844162  15.442782361
 N  3.088171307  9.079131662  1.511193480
 N  13.865805026  7.874844162  1.511193480
 N  13.865805026  9.079131662  15.442782361
