     360
CELL:    24.230588     0.000854     0.000098    -0.000890    25.241811     0.000092    -0.000097    -0.000079    23.534381
Cs  7.933423923  3.677466202  2.941841081
Cs  0.143090970  4.736714918  8.825407511
Cs  3.895079260  0.529879939  8.825412498
Cs  4.181435092  7.884303860  2.941846352
Pb -0.000031184 -0.000019978  5.883591308
Pb  4.038251689  4.207091778  5.883631352
Pb  0.000004241 -0.000003997  0.000005727
Pb  4.038287245  4.207114514  0.000025518
Br  1.579171095  2.527222277  6.324831569
Br  6.497333674  5.886954489  5.442426040
Br  5.617635737  1.679960756  5.442404426
Br  2.458868505  6.734227374  6.324847076
Br  6.497369542  5.886974845  0.441268396
Br  1.579161958  2.527207267  11.325989023
Br  2.458863313  6.734206394  11.326003185
Br  5.617668251  1.679975290  0.441246475
Br  7.487505302  8.342611741  8.825457526
Br  0.589014894  0.071572528  2.941803694
Br  3.449242083  4.278640159  2.941823416
Br  4.627279309  4.135540612  8.825423579
Cs  7.933375379  3.677426919  14.709031486
Cs  0.143042426  4.736675635  20.592597917
Cs  3.895030717  0.529840657  20.592602904
Cs  4.181386548  7.884264578  14.709036757
Pb -0.000079728 -0.000059261  17.650781713
Pb  4.038203146  4.207052496  17.650821757
Pb -0.000044303 -0.000043279  11.767196133
Pb  4.038238702  4.207075231  11.767215923
Br  1.579122551  2.527182994  18.092021974
Br  6.497285131  5.886915207  17.209616445
Br  5.617587193  1.679921474  17.209594831
Br  2.458819961  6.734188092  18.092037481
Br  6.497320998  5.886935562  12.208458802
Br  1.579113415  2.527167985  23.093179428
Br  2.458814770  6.734167111  23.093193590
Br  5.617619707  1.679936007  12.208436880
Br  7.487456758  8.342572458  20.592647931
Br  0.588966350  0.071533245  14.708994099
Br  3.449193540  4.278600876  14.709013822
Br  4.627230765  4.135501330  20.592613985
Cs  7.933127163  12.091403187  2.941871849
Cs  0.142794210  13.150651903  8.825438279
Cs  3.894782500  8.943816924  8.825443266
Cs  4.181138332  16.298240845  2.941877120
Pb -0.000327945  8.413917007  5.883622076
Pb  4.037954929  12.621028763  5.883662120
Pb -0.000292519  8.413932988  0.000036495
Pb  4.037990485  12.621051499  0.000056286
Br  1.578874335  10.941159262  6.324862336
Br  6.497036914  14.300891474  5.442456808
Br  5.617338977  10.093897741  5.442435194
Br  2.458571745  15.148164359  6.324877843
Br  6.497072782  14.300911830  0.441299164
Br  1.578865198  10.941144252  11.326019790
Br  2.458566553  15.148143379  11.326033953
Br  5.617371491  10.093912275  0.441277243
Br  7.487208541  16.756548726  8.825488294
Br  0.588718134  8.485509513  2.941834461
Br  3.448945323  12.692577144  2.941854184
Br  4.626982549  12.549477597  8.825454347
Cs  7.933078619  12.091363904  14.709062254
Cs  0.142745666  13.150612620  20.592628685
Cs  3.894733957  8.943777642  20.592633672
Cs  4.181089788  16.298201563  14.709067525
Pb -0.000376488  8.413877724  17.650812481
Pb  4.037906386  12.620989481  17.650852525
Pb -0.000341063  8.413893706  11.767226901
Pb  4.037941942  12.621012216  11.767246691
Br  1.578825791  10.941119979  18.092052742
Br  6.496988371  14.300852192  17.209647213
Br  5.617290433  10.093858459  17.209625599
Br  2.458523201  15.148125077  18.092068249
Br  6.497024238  14.300872547  12.208489570
Br  1.578816655  10.941104970  23.093210196
Br  2.458518010  15.148104096  23.093224358
Br  5.617322947  10.093872992  12.208467648
Br  7.487159998  16.756509443  20.592678699
Br  0.588669590  8.485470230  14.709024867
Br  3.448896780  12.692537861  14.709044589
Br  4.626934005  12.549438315  20.592644752
Cs  7.932830403  20.505340172  2.941902616
Cs  0.142497450  21.564588888  8.825469047
Cs  3.894485740  17.357753909  8.825474034
Cs  4.180841572  24.712177830  2.941907888
Pb -0.000624705  16.827853991  5.883652843
Pb  4.037658169  21.034965748  5.883692887
Pb -0.000589279  16.827869973  0.000067263
Pb  4.037693725  21.034988484  0.000087053
Br  1.578577575  19.355096247  6.324893104
Br  6.496740154  22.714828459  5.442487576
Br  5.617042217  18.507834726  5.442465962
Br  2.458274985  23.562101344  6.324908611
Br  6.496776022  22.714848815  0.441329932
Br  1.578568438  19.355081237  11.326050558
Br  2.458269793  23.562080363  11.326064720
Br  5.617074731  18.507849260  0.441308011
Br  7.486911781  25.170485711  8.825519061
Br  0.588421374  16.899446498  2.941865229
Br  3.448648563  21.106514129  2.941884952
Br  4.626685789  20.963414582  8.825485115
Cs  7.932781859  20.505300889  14.709093022
Cs  0.142448906  21.564549605  20.592659452
Cs  3.894437196  17.357714626  20.592664439
Cs  4.180793028  24.712138548  14.709098293
Pb -0.000673248  16.827814709  17.650843249
Pb  4.037609626  21.034926466  17.650883293
Pb -0.000637823  16.827830691  11.767257668
Pb  4.037645182  21.034949201  11.767277459
Br  1.578529031  19.355056964  18.092083510
Br  6.496691611  22.714789177  17.209677981
Br  5.616993673  18.507795444  17.209656367
Br  2.458226441  23.562062062  18.092099017
Br  6.496727478  22.714809532  12.208520337
Br  1.578519895  19.355041955  23.093240964
Br  2.458221250  23.562041081  23.093255126
Br  5.617026187  18.507809977  12.208498416
Br  7.486863238  25.170446428  20.592709467
Br  0.588372830  16.899407215  14.709055635
Br  3.448600020  21.106474846  14.709075357
Br  4.626637245  20.963375300  20.592675520
Cs  16.010286468  3.677750842  2.941873880
Cs  8.219953515  4.736999559  8.825440311
Cs  11.971941805  0.530164580  8.825445298
Cs  12.258297637  7.884588501  2.941879151
Pb  8.076831361  0.000264662  5.883624107
Pb  12.115114235  4.207376419  5.883664151
Pb  8.076866786  0.000280644  0.000038527
Pb  12.115149791  4.207399154  0.000058317
Br  9.656033640  2.527506917  6.324864368
Br  14.574196220  5.887239130  5.442458839
Br  13.694498282  1.680245397  5.442437225
Br  10.535731050  6.734512015  6.324879875
Br  14.574232087  5.887259485  0.441301196
Br  9.656024504  2.527491908  11.326021822
Br  10.535725859  6.734491034  11.326035984
Br  13.694530796  1.680259931  0.441279274
Br  15.564367847  8.342896382  8.825490325
Br  8.665877439  0.071857168  2.941836493
Br  11.526104629  4.278924800  2.941856216
Br  12.704141854  4.135825253  8.825456379
Cs  16.010237924  3.677711560  14.709064285
Cs  8.219904971  4.736960276  20.592630716
Cs  11.971893262  0.530125297  20.592635703
Cs  12.258249093  7.884549219  14.709069557
Pb  8.076782817  0.000225380  17.650814512
Pb  12.115065691  4.207337136  17.650854556
Pb  8.076818242  0.000241361  11.767228932
Pb  12.115101247  4.207359872  11.767248722
Br  9.655985096  2.527467635  18.092054773
Br  14.574147676  5.887199847  17.209649245
Br  13.694449738  1.680206114  17.209627631
Br  10.535682506  6.734472732  18.092070280
Br  14.574183543  5.887220203  12.208491601
Br  9.655975960  2.527452625  23.093212227
Br  10.535677315  6.734451752  23.093226389
Br  13.694482252  1.680220648  12.208469680
Br  15.564319303  8.342857099  20.592680730
Br  8.665828895  0.071817886  14.709026898
Br  11.526056085  4.278885517  14.709046621
Br  12.704093310  4.135785970  20.592646784
Cs  16.009989708  12.091687827  2.941904648
Cs  8.219656755  13.150936544  8.825471079
Cs  11.971645045  8.944101565  8.825476066
Cs  12.258000877  16.298525486  2.941909919
Pb  8.076534601  8.414201647  5.883654875
Pb  12.114817475  12.621313404  5.883694919
Pb  8.076570026  8.414217629  0.000069295
Pb  12.114853031  12.621336139  0.000089085
Br  9.655736880  10.941443902  6.324895136
Br  14.573899459  14.301176115  5.442489607
Br  13.694201522  10.094182382  5.442467993
Br  10.535434290  15.148449000  6.324910643
Br  14.573935327  14.301196470  0.441331964
Br  9.655727743  10.941428893  11.326052590
Br  10.535429098  15.148428019  11.326066752
Br  13.694234036  10.094196915  0.441310042
Br  15.564071087  16.756833367  8.825521093
Br  8.665580679  8.485794153  2.941867261
Br  11.525807869  12.692861785  2.941886983
Br  12.703845094  12.549762238  8.825487146
Cs  16.009941164  12.091648545  14.709095053
Cs  8.219608211  13.150897261  20.592661484
Cs  11.971596502  8.944062282  20.592666471
Cs  12.257952333  16.298486203  14.709100325
Pb  8.076486057  8.414162365  17.650845280
Pb  12.114768931  12.621274121  17.650885324
Pb  8.076521482  8.414178346  11.767259700
Pb  12.114804487  12.621296857  11.767279490
Br  9.655688336  10.941404620  18.092085541
Br  14.573850916  14.301136832  17.209680012
Br  13.694152978  10.094143099  17.209658398
Br  10.535385746  15.148409717  18.092101048
Br  14.573886783  14.301157188  12.208522369
Br  9.655679200  10.941389610  23.093242995
Br  10.535380555  15.148388737  23.093257157
Br  13.694185492  10.094157633  12.208500447
Br  15.564022543  16.756794084  20.592711498
Br  8.665532135  8.485754871  14.709057666
Br  11.525759325  12.692822502  14.709077389
Br  12.703796550  12.549722955  20.592677552
Cs  16.009692948  20.505624812  2.941935416
Cs  8.219359995  21.564873529  8.825501846
Cs  11.971348285  17.358038550  8.825506833
Cs  12.257704117  24.712462471  2.941940687
Pb  8.076237841  16.828138632  5.883685643
Pb  12.114520714  21.035250389  5.883725687
Pb  8.076273266  16.828154614  0.000100062
Pb  12.114556270  21.035273124  0.000119853
Br  9.655440120  19.355380887  6.324925904
Br  14.573602699  22.715113100  5.442520375
Br  13.693904762  18.508119367  5.442498761
Br  10.535137530  23.562385985  6.324941410
Br  14.573638567  22.715133455  0.441362731
Br  9.655430983  19.355365878  11.326083358
Br  10.535132338  23.562365004  11.326097520
Br  13.693937276  18.508133900  0.441340810
Br  15.563774327  25.170770351  8.825551861
Br  8.665283919  16.899731138  2.941898029
Br  11.525511108  21.106798769  2.941917751
Br  12.703548334  20.963699223  8.825517914
Cs  16.009644404  20.505585530  14.709125821
Cs  8.219311451  21.564834246  20.592692252
Cs  11.971299742  17.357999267  20.592697239
Cs  12.257655573  24.712423188  14.709131092
Pb  8.076189297  16.828099349  17.650876048
Pb  12.114472171  21.035211106  17.650916092
Pb  8.076224722  16.828115331  11.767290468
Pb  12.114507727  21.035233842  11.767310258
Br  9.655391576  19.355341605  18.092116309
Br  14.573554156  22.715073817  17.209710780
Br  13.693856218  18.508080084  17.209689166
Br  10.535088986  23.562346702  18.092131816
Br  14.573590023  22.715094173  12.208553137
Br  9.655382440  19.355326595  23.093273763
Br  10.535083795  23.562325722  23.093287925
Br  13.693888732  18.508094618  12.208531215
Br  15.563725783  25.170731069  20.592742266
Br  8.665235375  16.899691856  14.709088434
Br  11.525462565  21.106759487  14.709108156
Br  12.703499790  20.963659940  20.592708320
Cs  24.087149013  3.678035483  2.941906679
Cs  16.296816060  4.737284199  8.825473110
Cs  20.048804351  0.530449220  8.825478097
Cs  20.335160182  7.884873142  2.941911951
Pb  16.153693906  0.000549303  5.883656906
Pb  20.191976780  4.207661059  5.883696950
Pb  16.153729331  0.000565284  0.000071326
Pb  20.192012336  4.207683795  0.000091116
Br  17.732896185  2.527791558  6.324897167
Br  22.651058765  5.887523770  5.442491639
Br  21.771360827  1.680530038  5.442470025
Br  18.612593595  6.734796655  6.324912674
Br  22.651094632  5.887544126  0.441333995
Br  17.732887049  2.527776549  11.326054621
Br  18.612588404  6.734775675  11.326068783
Br  21.771393341  1.680544571  0.441312074
Br  23.641230392  8.343181022  8.825523124
Br  16.742739984  0.072141809  2.941869292
Br  19.602967174  4.279209440  2.941889015
Br  20.781004399  4.136109893  8.825489178
Cs  24.087100470  3.677996200  14.709097085
Cs  16.296767516  4.737244917  20.592663515
Cs  20.048755807  0.530409938  20.592668502
Cs  20.335111638  7.884833859  14.709102356
Pb  16.153645362  0.000510020  17.650847312
Pb  20.191928236  4.207621777  17.650887356
Pb  16.153680788  0.000526002  11.767261731
Pb  20.191963792  4.207644512  11.767281522
Br  17.732847641  2.527752275  18.092087573
Br  22.651010221  5.887484488  17.209682044
Br  21.771312284  1.680490755  17.209660430
Br  18.612545051  6.734757373  18.092103079
Br  22.651046088  5.887504843  12.208524400
Br  17.732838505  2.527737266  23.093245027
Br  18.612539860  6.734736392  23.093259189
Br  21.771344797  1.680505289  12.208502479
Br  23.641181848  8.343141740  20.592713530
Br  16.742691440  0.072102526  14.709059698
Br  19.602918630  4.279170158  14.709079420
Br  20.780955855  4.136070611  20.592679583
Cs  24.086852253  12.091972468  2.941937447
Cs  16.296519300  13.151221184  8.825503878
Cs  20.048507591  8.944386205  8.825508865
Cs  20.334863422  16.298810127  2.941942719
Pb  16.153397146  8.414486288  5.883687674
Pb  20.191680020  12.621598044  5.883727718
Pb  16.153432571  8.414502269  0.000102094
Pb  20.191715576  12.621620780  0.000121884
Br  17.732599425  10.941728543  6.324927935
Br  22.650762005  14.301460755  5.442522406
Br  21.771064067  10.094467023  5.442500792
Br  18.612296835  15.148733640  6.324943442
Br  22.650797872  14.301481111  0.441364763
Br  17.732590289  10.941713534  11.326085389
Br  18.612291644  15.148712660  11.326099551
Br  21.771096581  10.094481556  0.441342841
Br  23.640933632  16.757118007  8.825553892
Br  16.742443224  8.486078794  2.941900060
Br  19.602670414  12.693146425  2.941919783
Br  20.780707639  12.550046878  8.825519946
Cs  24.086803709  12.091933185  14.709127853
Cs  16.296470756  13.151181902  20.592694283
Cs  20.048459047  8.944346923  20.592699270
Cs  20.334814878  16.298770844  14.709133124
Pb  16.153348602  8.414447005  17.650878080
Pb  20.191631476  12.621558762  17.650918123
Pb  16.153384028  8.414462987  11.767292499
Pb  20.191667032  12.621581497  11.767312290
Br  17.732550881  10.941689260  18.092118340
Br  22.650713461  14.301421473  17.209712812
Br  21.771015523  10.094427740  17.209691198
Br  18.612248291  15.148694358  18.092133847
Br  22.650749328  14.301441828  12.208555168
Br  17.732541745  10.941674251  23.093275794
Br  18.612243100  15.148673377  23.093289956
Br  21.771048037  10.094442274  12.208533247
Br  23.640885088  16.757078725  20.592744298
Br  16.742394680  8.486039511  14.709090465
Br  19.602621870  12.693107143  14.709110188
Br  20.780659095  12.550007596  20.592710351
Cs  24.086555493  20.505909453  2.941968215
Cs  16.296222540  21.565158169  8.825534646
Cs  20.048210830  17.358323190  8.825539633
Cs  20.334566662  24.712747112  2.941973486
Pb  16.153100386  16.828423273  5.883718442
Pb  20.191383260  21.035535029  5.883758486
Pb  16.153135811  16.828439254  0.000132862
Pb  20.191418816  21.035557765  0.000152652
Br  17.732302665  19.355665528  6.324958703
Br  22.650465245  22.715397740  5.442553174
Br  21.770767307  18.508404008  5.442531560
Br  18.612000075  23.562670625  6.324974210
Br  22.650501112  22.715418096  0.441395531
Br  17.732293528  19.355650519  11.326116157
Br  18.611994884  23.562649645  11.326130319
Br  21.770799821  18.508418541  0.441373609
Br  23.640636872  25.171054992  8.825584660
Br  16.742146464  16.900015779  2.941930828
Br  19.602373654  21.107083410  2.941950550
Br  20.780410879  20.963983863  8.825550714
Cs  24.086506949  20.505870170  14.709158620
Cs  16.296173996  21.565118887  20.592725051
Cs  20.048162287  17.358283908  20.592730038
Cs  20.334518118  24.712707829  14.709163892
Pb  16.153051842  16.828383990  17.650908847
Pb  20.191334716  21.035495747  17.650948891
Pb  16.153087267  16.828399972  11.767323267
Pb  20.191370272  21.035518482  11.767343057
Br  17.732254121  19.355626245  18.092149108
Br  22.650416701  22.715358458  17.209743580
Br  21.770718763  18.508364725  17.209721966
Br  18.611951531  23.562631343  18.092164615
Br  22.650452568  22.715378813  12.208585936
Br  17.732244985  19.355611236  23.093306562
Br  18.611946340  23.562610362  23.093320724
Br  21.770751277  18.508379258  12.208564014
Br  23.640588328  25.171015710  20.592775065
Br  16.742097920  16.899976496  14.709121233
Br  19.602325110  21.107044128  14.709140956
Br  20.780362335  20.963944581  20.592741119
