     360
CELL:    24.504007     0.000006    -0.000029     0.000006    24.504052    -0.000006    -0.000029    -0.000006    24.100564
Cs  4.083978252  0.000002617  3.012566272
Cs  0.000017115  4.083998764  3.012570492
Pb  0.000045313  0.000017018  0.000000323
Pb  4.083959103  4.083989852 -0.000005480
Br -0.000009717 -0.000011201  3.012570631
Br  4.084009007  4.084005958  3.012564278
Br  6.670555084  2.586555309 -0.000007339
Br  1.497474056  5.581466284 -0.000005336
Br  5.581445051  6.670571898 -0.000009202
Br  2.586526636  1.497468445 -0.000003556
Cs  4.083970884  0.000001202  9.037707208
Cs  0.000009746  4.083997349  9.037711428
Pb  0.000037945  0.000015604  6.025141260
Pb  4.083951735  4.083988437  6.025135457
Br -0.000017085 -0.000012616  9.037711567
Br  4.084001639  4.084004543  9.037705214
Br  6.670547716  2.586553894  6.025133597
Br  1.497466688  5.581464869  6.025135601
Br  5.581437682  6.670570483  6.025131735
Br  2.586519268  1.497467031  6.025137380
Cs  4.083963516 -0.000000213  15.062848145
Cs  0.000002378  4.083995934  15.062852365
Pb  0.000030576  0.000014189  12.050282196
Pb  4.083944367  4.083987022  12.050276393
Br -0.000024454 -0.000014030  15.062852504
Br  4.083994271  4.084003128  15.062846151
Br  6.670540347  2.586552479  12.050274534
Br  1.497459319  5.581463454  12.050276537
Br  5.581430314  6.670569068  12.050272671
Br  2.586511899  1.497465616  12.050278317
Cs  4.083956147 -0.000001627  21.087989082
Cs -0.000004991  4.083994519  21.087993301
Pb  0.000023208  0.000012774  18.075423133
Pb  4.083936998  4.083985607  18.075417330
Br -0.000031822 -0.000015445  21.087993441
Br  4.083986902  4.084001714  21.087987088
Br  6.670532979  2.586551065  18.075415471
Br  1.497451951  5.581462040  18.075417474
Br  5.581422945  6.670567653  18.075413608
Br  2.586504531  1.497464201  18.075419253
Cs  4.083980302  8.168019969  3.012564321
Cs  0.000019164  12.252016116  3.012568541
Pb  0.000047363  8.168034371 -0.000001628
Pb  4.083961153  12.252007204 -0.000007431
Br -0.000007667  8.168006152  3.012568680
Br  4.084011057  12.252023310  3.012562327
Br  6.670557134  10.754572661 -0.000009290
Br  1.497476106  13.749483636 -0.000007287
Br  5.581447100  14.838589250 -0.000011153
Br  2.586528686  9.665485798 -0.000005507
Cs  4.083972934  8.168018554  9.037705258
Cs  0.000011796  12.252014701  9.037709477
Pb  0.000039994  8.168032956  6.025139309
Pb  4.083953785  12.252005789  6.025133506
Br -0.000015036  8.168004737  9.037709617
Br  4.084003689  12.252021895  9.037703263
Br  6.670549765  10.754571246  6.025131647
Br  1.497468737  13.749482221  6.025133650
Br  5.581439732  14.838587835  6.025129784
Br  2.586521317  9.665484383  6.025135429
Cs  4.083965565  8.168017140  15.062846194
Cs  0.000004427  12.252013287  15.062850414
Pb  0.000032626  8.168031541  12.050280245
Pb  4.083946416  12.252004374  12.050274442
Br -0.000022404  8.168003322  15.062850553
Br  4.083996320  12.252020481  15.062844200
Br  6.670542397  10.754569832  12.050272583
Br  1.497461369  13.749480807  12.050274586
Br  5.581432364  14.838586420  12.050270720
Br  2.586513949  9.665482968  12.050276366
Cs  4.083958197  8.168015725  21.087987131
Cs -0.000002941  12.252011872  21.087991350
Pb  0.000025257  8.168030126  18.075421182
Pb  4.083939048  12.252002960  18.075415379
Br -0.000029773  8.168001907  21.087991490
Br  4.083988952  12.252019066  21.087985137
Br  6.670535028  10.754568417  18.075413520
Br  1.497454000  13.749479392  18.075415523
Br  5.581424995  14.838585006  18.075411657
Br  2.586506581  9.665481553  18.075417303
Cs  4.083982352  16.336037322  3.012562370
Cs  0.000021214  20.420033468  3.012566590
Pb  0.000049412  16.336051723 -0.000003579
Pb  4.083963203  20.420024556 -0.000009382
Br -0.000005618  16.336023504  3.012566729
Br  4.084013107  20.420040663  3.012560376
Br  6.670559183  18.922590013 -0.000011241
Br  1.497478155  21.917500988 -0.000009238
Br  5.581449150  23.006606602 -0.000013104
Br  2.586530735  17.833503150 -0.000007458
Cs  4.083974983  16.336035907  9.037703307
Cs  0.000013846  20.420032054  9.037707526
Pb  0.000042044  16.336050308  6.025137358
Pb  4.083955834  20.420023141  6.025131555
Br -0.000012986  16.336022089  9.037707666
Br  4.084005738  20.420039248  9.037701312
Br  6.670551815  18.922588599  6.025129696
Br  1.497470787  21.917499574  6.025131699
Br  5.581441782  23.006605187  6.025127833
Br  2.586523367  17.833501735  6.025133478
Cs  4.083967615  16.336034492  15.062844243
Cs  0.000006477  20.420030639  15.062848463
Pb  0.000034675  16.336048894  12.050278295
Pb  4.083948466  20.420021727  12.050272491
Br -0.000020355  16.336020674  15.062848602
Br  4.083998370  20.420037833  15.062842249
Br  6.670544446  18.922587184  12.050270632
Br  1.497463418  21.917498159  12.050272635
Br  5.581434413  23.006603773  12.050268769
Br  2.586515999  17.833500321  12.050274415
Cs  4.083960246  16.336033077  21.087985180
Cs -0.000000891  20.420029224  21.087989399
Pb  0.000027307  16.336047479  18.075419231
Pb  4.083941097  20.420020312  18.075413428
Br -0.000027723  16.336019260  21.087989539
Br  4.083991001  20.420036418  21.087983186
Br  6.670537078  18.922585769  18.075411569
Br  1.497456050  21.917496744  18.075413572
Br  5.581427045  23.006602358  18.075409706
Br  2.586508630  17.833498906  18.075415352
Cs  12.251980420  0.000004663  3.012556568
Cs  8.168019283  4.084000810  3.012560788
Pb  8.168047481  0.000019065 -0.000009381
Pb  12.251961271  4.083991898 -0.000015184
Br  8.167992451 -0.000009155  3.012560927
Br  12.252011175  4.084008004  3.012554574
Br  14.838557252  2.586557355 -0.000017043
Br  9.665476224  5.581468330 -0.000015040
Br  13.749447219  6.670573944 -0.000018906
Br  10.754528804  1.497470492 -0.000013260
Cs  12.251973052  0.000003248  9.037697505
Cs  8.168011914  4.083999395  9.037701724
Pb  8.168040112  0.000017650  6.025131556
Pb  12.251953903  4.083990483  6.025125753
Br  8.167985082 -0.000010569  9.037701864
Br  12.252003807  4.084006589  9.037695511
Br  14.838549883  2.586555940  6.025123894
Br  9.665468855  5.581466915  6.025125897
Br  13.749439850  6.670572529  6.025122031
Br  10.754521436  1.497469077  6.025127676
Cs  12.251965683  0.000001834  15.062838441
Cs  8.168004546  4.083997980  15.062842661
Pb  8.168032744  0.000016235  12.050272493
Pb  12.251946534  4.083989068  12.050266689
Br  8.167977714 -0.000011984  15.062842800
Br  12.251996438  4.084005175  15.062836447
Br  14.838542515  2.586554525  12.050264830
Br  9.665461487  5.581465501  12.050266833
Br  13.749432482  6.670571114  12.050262967
Br  10.754514067  1.497467662  12.050268613
Cs  12.251958315  0.000000419  21.087979378
Cs  8.167997177  4.083996566  21.087983597
Pb  8.168025375  0.000014820  18.075413429
Pb  12.251939166  4.083987654  18.075407626
Br  8.167970345 -0.000013399  21.087983737
Br  12.251989070  4.084003760  21.087977384
Br  14.838535146  2.586553111  18.075405767
Br  9.665454118  5.581464086  18.075407770
Br  13.749425113  6.670569700  18.075403904
Br  10.754506699  1.497466247  18.075409550
Cs  12.251982470  8.168022015  3.012554617
Cs  8.168021332  12.252018162  3.012558837
Pb  8.168049530  8.168036417 -0.000011332
Pb  12.251963321  12.252009250 -0.000017135
Br  8.167994500  8.168008198  3.012558976
Br  12.252013225  12.252025356  3.012552623
Br  14.838559301  10.754574707 -0.000018994
Br  9.665478273  13.749485682 -0.000016991
Br  13.749449268  14.838591296 -0.000020857
Br  10.754530854  9.665487844 -0.000015211
Cs  12.251975101  8.168020601  9.037695554
Cs  8.168013964  12.252016747  9.037699773
Pb  8.168042162  8.168035002  6.025129605
Pb  12.251955952  12.252007835  6.025123802
Br  8.167987132  8.168006783  9.037699913
Br  12.252005856  12.252023942  9.037693560
Br  14.838551933  10.754573292  6.025121943
Br  9.665470905  13.749484268  6.025123946
Br  13.749441900  14.838589881  6.025120080
Br  10.754523485  9.665486429  6.025125726
Cs  12.251967733  8.168019186  15.062836490
Cs  8.168006595  12.252015333  15.062840710
Pb  8.168034793  8.168033587  12.050270542
Pb  12.251948584  12.252006421  12.050264738
Br  8.167979763  8.168005368  15.062840849
Br  12.251998488  12.252022527  15.062834496
Br  14.838544564  10.754571878  12.050262879
Br  9.665463536  13.749482853  12.050264882
Br  13.749434531  14.838588467  12.050261016
Br  10.754516117  9.665485014  12.050266662
Cs  12.251960364  8.168017771  21.087977427
Cs  8.167999227  12.252013918  21.087981646
Pb  8.168027425  8.168032173  18.075411478
Pb  12.251941215  12.252005006  18.075405675
Br  8.167972395  8.168003953  21.087981786
Br  12.251991119  12.252021112  21.087975433
Br  14.838537196  10.754570463  18.075403816
Br  9.665456168  13.749481438  18.075405819
Br  13.749427163  14.838587052  18.075401953
Br  10.754508748  9.665483600  18.075407599
Cs  12.251984519  16.336039368  3.012552666
Cs  8.168023382  20.420035514  3.012556886
Pb  8.168051580  16.336053769 -0.000013282
Pb  12.251965370  20.420026602 -0.000019086
Br  8.167996550  16.336025550  3.012557025
Br  12.252015274  20.420042709  3.012550672
Br  14.838561351  18.922592060 -0.000020945
Br  9.665480323  21.917503035 -0.000018942
Br  13.749451318  23.006608648 -0.000022808
Br  10.754532903  17.833505196 -0.000017162
Cs  12.251977151  16.336037953  9.037693603
Cs  8.168016013  20.420034100  9.037697822
Pb  8.168044211  16.336052354  6.025127654
Pb  12.251958002  20.420025188  6.025121851
Br  8.167989181  16.336024135  9.037697962
Br  12.252007906  20.420041294  9.037691609
Br  14.838553982  18.922590645  6.025119992
Br  9.665472954  21.917501620  6.025121995
Br  13.749443949  23.006607234  6.025118129
Br  10.754525535  17.833503781  6.025123775
Cs  12.251969782  16.336036538  15.062834539
Cs  8.168008645  20.420032685  15.062838759
Pb  8.168036843  16.336050940  12.050268591
Pb  12.251950633  20.420023773  12.050262787
Br  8.167981813  16.336022721  15.062838898
Br  12.252000537  20.420039879  15.062832545
Br  14.838546614  18.922589230  12.050260928
Br  9.665465586  21.917500205  12.050262931
Br  13.749436581  23.006605819  12.050259065
Br  10.754518166  17.833502367  12.050264711
Cs  12.251962414  16.336035123  21.087975476
Cs  8.168001276  20.420031270  21.087979695
Pb  8.168029474  16.336049525  18.075409527
Pb  12.251943265  20.420022358  18.075403724
Br  8.167974444  16.336021306  21.087979835
Br  12.251993169  20.420038464  21.087973482
Br  14.838539245  18.922587815  18.075401865
Br  9.665458217  21.917498790  18.075403868
Br  13.749429212  23.006604404  18.075400002
Br  10.754510798  17.833500952  18.075405648
Cs  20.419982588  0.000006709  3.012546864
Cs  16.336021450  4.084002856  3.012551084
Pb  16.336049648  0.000021111 -0.000019084
Pb  20.419963439  4.083993944 -0.000024888
Br  16.335994618 -0.000007108  3.012551223
Br  20.420013343  4.084010050  3.012544870
Br  23.006559419  2.586559401 -0.000026747
Br  17.833478391  5.581470376 -0.000024744
Br  21.917449386  6.670575990 -0.000028610
Br  18.922530972  1.497472538 -0.000022964
Cs  20.419975219  0.000005295  9.037687801
Cs  16.336014082  4.084001441  9.037692020
Pb  16.336042280  0.000019696  6.025121852
Pb  20.419956070  4.083992529  6.025116049
Br  16.335987250 -0.000008523  9.037692160
Br  20.420005974  4.084008636  9.037685807
Br  23.006552051  2.586557986  6.025114190
Br  17.833471023  5.581468961  6.025116193
Br  21.917442018  6.670574575  6.025112327
Br  18.922523603  1.497471123  6.025117973
Cs  20.419967851  0.000003880  15.062828737
Cs  16.336006713  4.084000027  15.062832957
Pb  16.336034911  0.000018281  12.050262789
Pb  20.419948702  4.083991114  12.050256985
Br  16.335979881 -0.000009938  15.062833096
Br  20.419998606  4.084007221  15.062826743
Br  23.006544682  2.586556572  12.050255126
Br  17.833463654  5.581467547  12.050257129
Br  21.917434649  6.670573161  12.050253264
Br  18.922516235  1.497469708  12.050258909
Cs  20.419960482  0.000002465  21.087969674
Cs  16.335999345  4.083998612  21.087973894
Pb  16.336027543  0.000016867  18.075403725
Pb  20.419941333  4.083989700  18.075397922
Br  16.335972513 -0.000011353  21.087974033
Br  20.419991237  4.084005806  21.087967680
Br  23.006537314  2.586555157  18.075396063
Br  17.833456286  5.581466132  18.075398066
Br  21.917427281  6.670571746  18.075394200
Br  18.922508866  1.497468294  18.075399846
Cs  20.419984637  8.168024062  3.012544913
Cs  16.336023500  12.252020208  3.012549133
Pb  16.336051698  8.168038463 -0.000021035
Pb  20.419965488  12.252011296 -0.000026839
Br  16.335996668  8.168010244  3.012549272
Br  20.420015392  12.252027403  3.012542919
Br  23.006561469  10.754576753 -0.000028698
Br  17.833480441  13.749487729 -0.000026695
Br  21.917451436  14.838593342 -0.000030561
Br  18.922533021  9.665489890 -0.000024915
Cs  20.419977269  8.168022647  9.037685850
Cs  16.336016131  12.252018794  9.037690069
Pb  16.336044329  8.168037048  6.025119901
Pb  20.419958120  12.252009881  6.025114098
Br  16.335989299  8.168008829  9.037690209
Br  20.420008024  12.252025988  9.037683856
Br  23.006554100  10.754575339  6.025112239
Br  17.833473072  13.749486314  6.025114242
Br  21.917444067  14.838591928  6.025110376
Br  18.922525653  9.665488475  6.025116022
Cs  20.419969900  8.168021232  15.062826786
Cs  16.336008763  12.252017379  15.062831006
Pb  16.336036961  8.168035634  12.050260838
Pb  20.419950751  12.252008467  12.050255034
Br  16.335981931  8.168007414  15.062831145
Br  20.420000655  12.252024573  15.062824792
Br  23.006546732  10.754573924  12.050253175
Br  17.833465704  13.749484899  12.050255179
Br  21.917436699  14.838590513  12.050251313
Br  18.922518284  9.665487061  12.050256958
Cs  20.419962532  8.168019817  21.087967723
Cs  16.336001394  12.252015964  21.087971943
Pb  16.336029593  8.168034219  18.075401774
Pb  20.419943383  12.252007052  18.075395971
Br  16.335974563  8.168006000  21.087972082
Br  20.419993287  12.252023158  21.087965729
Br  23.006539364  10.754572509  18.075394112
Br  17.833458336  13.749483484  18.075396115
Br  21.917429330  14.838589098  18.075392249
Br  18.922510916  9.665485646  18.075397895
Cs  20.419986687  16.336041414  3.012542962
Cs  16.336025549  20.420037561  3.012547182
Pb  16.336053747  16.336055815 -0.000022986
Pb  20.419967538  20.420028648 -0.000028790
Br  16.335998717  16.336027596  3.012547321
Br  20.420017442  20.420044755  3.012540968
Br  23.006563519  18.922594106 -0.000030649
Br  17.833482491  21.917505081 -0.000028646
Br  21.917453485  23.006610695 -0.000032512
Br  18.922535071  17.833507242 -0.000026866
Cs  20.419979319  16.336039999  9.037683899
Cs  16.336018181  20.420036146  9.037688118
Pb  16.336046379  16.336054401  6.025117950
Pb  20.419960170  20.420027234  6.025112147
Br  16.335991349  16.336026181  9.037688258
Br  20.420010074  20.420043340  9.037681905
Br  23.006556150  18.922592691  6.025110288
Br  17.833475122  21.917503666  6.025112291
Br  21.917446117  23.006609280  6.025108425
Br  18.922527702  17.833505828  6.025114071
Cs  20.419971950  16.336038584  15.062824835
Cs  16.336010812  20.420034731  15.062829055
Pb  16.336039011  16.336052986  12.050258887
Pb  20.419952801  20.420025819  12.050253083
Br  16.335983981  16.336024767  15.062829194
Br  20.420002705  20.420041925  15.062822841
Br  23.006548782  18.922591276  12.050251224
Br  17.833467754  21.917502251  12.050253228
Br  21.917438748  23.006607865  12.050249362
Br  18.922520334  17.833504413  12.050255007
Cs  20.419964582  16.336037170  21.087965772
Cs  16.336003444  20.420033316  21.087969992
Pb  16.336031642  16.336051571  18.075399823
Pb  20.419945433  20.420024404  18.075394020
Br  16.335976612  16.336023352  21.087970131
Br  20.419995337  20.420040511  21.087963778
Br  23.006541413  18.922589862  18.075392161
Br  17.833460385  21.917500837  18.075394164
Br  21.917431380  23.006606450  18.075390298
Br  18.922512965  17.833502998  18.075395944
